Version 4
SymbolType CELL
RECTANGLE Normal -64 -64 64 64
TEXT 0 0 Center 2 ADI
WINDOW 0 16 -80 Left 2
WINDOW 3 16 80 Left 2
SYMATTR Value AD590
SYMATTR Prefix X
SYMATTR SpiceModel ADR.lib
SYMATTR Value2 AD590
SYMATTR Description 2-Terminal IC Temperature Transducer
PIN 0 -64 TOP 8
PINATTR PinName V+
PINATTR SpiceOrder 1
PIN 0 64 BOTTOM 8
PINATTR PinName V-
PINATTR SpiceOrder 2
