Version 4
SymbolType CELL
RECTANGLE Normal -112 -80 112 80
TEXT 0 0 Center 2 ADI
WINDOW 0 0 -80 Bottom 2
WINDOW 3 12 93 Left 2
SYMATTR Value ADR225
SYMATTR Prefix X
SYMATTR SpiceModel ADR.lib
SYMATTR Value2 ADR225
SYMATTR Description High Temperature, Low Drift, µPower 2.5V Reference
PIN -112 -48 LEFT 8
PINATTR PinName IN
PINATTR SpiceOrder 1
PIN 0 80 BOTTOM 8
PINATTR PinName GND
PINATTR SpiceOrder 2
PIN 112 -48 RIGHT 8
PINATTR PinName OUT
PINATTR SpiceOrder 3
