Version 4
SymbolType CELL
RECTANGLE Normal -128 -64 128 96
TEXT 0 0 Center 2 ADI
WINDOW 0 -1 -42 Center 2
WINDOW 3 -53 35 Left 2
SYMATTR Value ADR4525
SYMATTR Prefix X
SYMATTR SpiceModel ADR4525.sub
SYMATTR Value2 ADR4525
PIN -128 0 LEFT 8
PINATTR PinName IN
PINATTR SpiceOrder 1
PIN 0 96 BOTTOM 8
PINATTR PinName GND
PINATTR SpiceOrder 2
PIN 128 0 RIGHT 8
PINATTR PinName OUT
PINATTR SpiceOrder 3
