Version 4
SymbolType CELL
RECTANGLE Normal 64 48 -64 -32
TEXT -44 -22 Left 2 LM7815
SYMATTR Value LM7815
SYMATTR Prefix X
SYMATTR Value2 LM7815
SYMATTR Description LM7815 voltage regulator
SYMATTR ModelFile LM7805_7812_7815.lib
PIN -64 0 LEFT 8
PINATTR PinName IN
PINATTR SpiceOrder 1
PIN 0 48 BOTTOM 8
PINATTR PinName GND
PINATTR SpiceOrder 2
PIN 64 0 RIGHT 8
PINATTR PinName OUT
PINATTR SpiceOrder 3
