Version 4
SymbolType CELL
RECTANGLE Normal -128 -144 128 160
TEXT 0 0 Center 2 ADI
WINDOW 0 0 -48 Center 2
WINDOW 3 0 48 Center 2
SYMATTR Value ADM7171-1.3
SYMATTR Prefix X
SYMATTR SpiceModel ADM7171.sub
SYMATTR Value2 ADM7171 Vref=1.3
SYMATTR Description 6.5V, 1A, Ultralow Noise, High PSRR, Fast Transient Response CMOS LDO, Fixed 1.3V Output
PIN -128 -96 LEFT 8
PINATTR PinName Vin
PINATTR SpiceOrder 1
PIN 128 96 RIGHT 8
PINATTR PinName Sense
PINATTR SpiceOrder 2
PIN -128 0 LEFT 8
PINATTR PinName EN
PINATTR SpiceOrder 3
PIN -128 96 LEFT 8
PINATTR PinName SS
PINATTR SpiceOrder 4
PIN 128 -96 RIGHT 8
PINATTR PinName Vout
PINATTR SpiceOrder 5
PIN 0 160 BOTTOM 8
PINATTR PinName GND
PINATTR SpiceOrder 6
