Version 4
SymbolType CELL
RECTANGLE Normal -128 -128 128 128
TEXT 0 0 Center 2 ADI
WINDOW 0 0 -64 Center 2
WINDOW 3 0 64 Center 2
SYMATTR Value ADM7160-3.3
SYMATTR Prefix X
SYMATTR SpiceModel ADM7160-x.x.sub
SYMATTR Value2 ADM7160-x.x T=2.3Meg
SYMATTR Description Ultralow Noise, 200mA Linear Regulator, Fixed 3.3V Output
PIN 0 -128 TOP 8
PINATTR PinName Vin
PINATTR SpiceOrder 1
PIN 0 128 BOTTOM 8
PINATTR PinName GND
PINATTR SpiceOrder 2
PIN -128 0 LEFT 8
PINATTR PinName EN
PINATTR SpiceOrder 3
PIN 128 0 RIGHT 8
PINATTR PinName Vout
PINATTR SpiceOrder 5
