Version 4
SymbolType CELL
RECTANGLE Normal 160 208 -160 -176
TEXT 0 0 Center 2 ADI
WINDOW 3 0 96 Center 2
WINDOW 0 0 -96 Center 2
SYMATTR Value ADM7154-2.5
SYMATTR Prefix X
SYMATTR SpiceModel ADM7154_5.sub
SYMATTR Value2 ADM7154_5 Vreg=3.2022 Vref=2.5157
SYMATTR Description 600 mA, Ultralow Noise, High PSRR, RF Linear Regulator
PIN -160 144 LEFT 8
PINATTR PinName Vreg
PINATTR SpiceOrder 1
PIN 160 -144 RIGHT 8
PINATTR PinName Vout
PINATTR SpiceOrder 2
PIN -160 48 LEFT 8
PINATTR PinName Byp
PINATTR SpiceOrder 3
PIN 0 208 BOTTOM 8
PINATTR PinName GND
PINATTR SpiceOrder 4
PIN 160 144 RIGHT 8
PINATTR PinName Ref_Sense
PINATTR SpiceOrder 5
PIN 160 48 RIGHT 8
PINATTR PinName Ref
PINATTR SpiceOrder 6
PIN -160 -48 LEFT 8
PINATTR PinName EN
PINATTR SpiceOrder 7
PIN -160 -144 LEFT 8
PINATTR PinName Vin
PINATTR SpiceOrder 8
