Version 4
SymbolType CELL
RECTANGLE Normal -304 -352 288 480
TEXT -1 0 Center 2 ADI
WINDOW 0 -1 -169 Center 2
WINDOW 3 -1 152 Center 2
SYMATTR Value ADN8834
SYMATTR Prefix X
SYMATTR SpiceModel ADN8834.sub
SYMATTR Value2 ADN8834
SYMATTR Description Ultracompact, 1.5A Thermoelectric Cooler (TEC) Controller\n\n Average Model
PIN -160 480 BOTTOM 8
PINATTR PinName PGNDL
PINATTR SpiceOrder 1
PIN 288 -272 RIGHT 8
PINATTR PinName TMPGD
PINATTR SpiceOrder 2
PIN -304 128 LEFT 8
PINATTR PinName OUT1
PINATTR SpiceOrder 3
PIN -304 -64 LEFT 8
PINATTR PinName IN1P
PINATTR SpiceOrder 4
PIN -304 224 LEFT 8
PINATTR PinName IN2P
PINATTR SpiceOrder 5
PIN 288 224 RIGHT 8
PINATTR PinName LDR
PINATTR SpiceOrder 6
PIN -304 32 LEFT 8
PINATTR PinName IN1N
PINATTR SpiceOrder 7
PIN -304 320 LEFT 8
PINATTR PinName IN2N
PINATTR SpiceOrder 8
PIN -304 -272 LEFT 8
PINATTR PinName VLIM/SD
PINATTR SpiceOrder 9
PIN -160 -352 TOP 8
PINATTR PinName VREF
PINATTR SpiceOrder 10
PIN 288 -64 RIGHT 8
PINATTR PinName PVINL
PINATTR SpiceOrder 11
PIN 288 32 RIGHT 8
PINATTR PinName PVINS
PINATTR SpiceOrder 12
PIN 160 -352 TOP 8
PINATTR PinName ITEC
PINATTR SpiceOrder 13
PIN -304 416 LEFT 8
PINATTR PinName OUT2
PINATTR SpiceOrder 14
PIN -304 -160 LEFT 8
PINATTR PinName ILIM
PINATTR SpiceOrder 15
PIN 288 320 RIGHT 8
PINATTR PinName SW
PINATTR SpiceOrder 16
PIN 0 -352 TOP 8
PINATTR PinName VTEC
PINATTR SpiceOrder 17
PIN 288 128 RIGHT 8
PINATTR PinName EN/SY
PINATTR SpiceOrder 18
PIN 288 -160 RIGHT 8
PINATTR PinName VDD
PINATTR SpiceOrder 19
PIN 160 480 BOTTOM 8
PINATTR PinName PGNDS
PINATTR SpiceOrder 20
PIN 288 416 RIGHT 8
PINATTR PinName SFB
PINATTR SpiceOrder 21
PIN 0 480 BOTTOM 8
PINATTR PinName AGND
PINATTR SpiceOrder 22
