Version 4
SymbolType CELL
RECTANGLE Normal 96 48 -96 -144
TEXT 0 -72 Center 2 ADI
WINDOW 0 0 -144 Bottom 2
WINDOW 3 0 -32 Center 2
SYMATTR Value ADP122-2.5
SYMATTR Description 5.5 V Input, 300 mA, Low Quiescent Current, CMOS Linear Regulator
SYMATTR Prefix X
SYMATTR Value2 ADP122 K=1/5000
SYMATTR SpiceModel ADP122.sub
PIN 96 -112 RIGHT 8
PINATTR PinName Vout
PINATTR SpiceOrder 1
PIN 0 48 BOTTOM 8
PINATTR PinName GND
PINATTR SpiceOrder 3
PIN -96 0 LEFT 8
PINATTR PinName En
PINATTR SpiceOrder 4
PIN -96 -112 LEFT 8
PINATTR PinName Vin
PINATTR SpiceOrder 6
