Version 4
SymbolType CELL
RECTANGLE Normal -128 -128 128 128
TEXT 0 0 Center 2 ADI
WINDOW 0 0 -64 Center 2
WINDOW 3 0 64 Center 2
SYMATTR Value ADP150-2.75
SYMATTR Prefix X
SYMATTR SpiceModel ADP150-x.x.sub
SYMATTR Value2 ADP150-x.x T=1.55Meg
SYMATTR Description 150mA CMOS Linear Regulator, Fixed 2.75V Output
PIN 0 -128 TOP 8
PINATTR PinName Vin
PINATTR SpiceOrder 1
PIN 0 128 BOTTOM 8
PINATTR PinName GND
PINATTR SpiceOrder 2
PIN -128 0 LEFT 8
PINATTR PinName EN
PINATTR SpiceOrder 3
PIN 128 0 RIGHT 8
PINATTR PinName Vout
PINATTR SpiceOrder 5
