Version 4
SymbolType CELL
RECTANGLE Normal 96 48 -96 -144
TEXT 0 -72 Center 2 ADI
WINDOW 0 0 -144 Bottom 2
WINDOW 3 0 -32 Center 2
SYMATTR Value ADP166-2.3
SYMATTR Description Very Low Quiescent Current, 150mA, LDO Regulator
SYMATTR Prefix X
SYMATTR SpiceModel ADP16x.lib
SYMATTR Value2 ADP16xf K=434.8u
PIN -96 -112 LEFT 8
PINATTR PinName Vin
PINATTR SpiceOrder 1
PIN 0 48 BOTTOM 8
PINATTR PinName GND
PINATTR SpiceOrder 2
PIN -96 0 LEFT 8
PINATTR PinName En
PINATTR SpiceOrder 3
PIN 96 -112 RIGHT 8
PINATTR PinName Vout
PINATTR SpiceOrder 4
