Version 4
SymbolType CELL
RECTANGLE Normal -176 -416 176 496
TEXT 0 0 Center 2 ADI
WINDOW 0 0 -169 Center 2
WINDOW 3 0 152 Center 2
SYMATTR Value ADP1074
SYMATTR Prefix X
SYMATTR SpiceModel ADP1074.sub
SYMATTR Value2 ADP1074
SYMATTR Description Isolated, Synchronous Forward Controller with Active Clamp and iCoupler
PIN -176 -288 LEFT 8
PINATTR PinName Ngate
PINATTR SpiceOrder 1
PIN -176 432 LEFT 8
PINATTR PinName Pgnd1
PINATTR SpiceOrder 2
PIN -176 -208 LEFT 8
PINATTR PinName Pgate
PINATTR SpiceOrder 3
PIN -64 496 BOTTOM 8
PINATTR PinName Agnd1
PINATTR SpiceOrder 4
PIN -176 -128 LEFT 8
PINATTR PinName Vreg1
PINATTR SpiceOrder 5
PIN -176 -48 LEFT 8
PINATTR PinName Vin
PINATTR SpiceOrder 6
PIN -176 32 LEFT 8
PINATTR PinName EN
PINATTR SpiceOrder 7
PIN -176 -368 LEFT 8
PINATTR PinName CS
PINATTR SpiceOrder 8
PIN -176 352 LEFT 8
PINATTR PinName Rt
PINATTR SpiceOrder 9
PIN -176 112 LEFT 8
PINATTR PinName Sync
PINATTR SpiceOrder 10
PIN -176 192 LEFT 8
PINATTR PinName SS1
PINATTR SpiceOrder 11
PIN -176 272 LEFT 8
PINATTR PinName Dmax
PINATTR SpiceOrder 12
PIN 176 352 RIGHT 8
PINATTR PinName Mode
PINATTR SpiceOrder 13
PIN 176 -48 RIGHT 8
PINATTR PinName _Pgood
PINATTR SpiceOrder 14
PIN 176 432 RIGHT 8
PINATTR PinName Pgnd2
PINATTR SpiceOrder 15
PIN 176 192 RIGHT 8
PINATTR PinName Comp
PINATTR SpiceOrder 16
PIN 176 32 RIGHT 8
PINATTR PinName FB
PINATTR SpiceOrder 17
PIN 176 112 RIGHT 8
PINATTR PinName OVP
PINATTR SpiceOrder 18
PIN 176 -208 RIGHT 8
PINATTR PinName VDD2
PINATTR SpiceOrder 19
PIN 176 -128 RIGHT 8
PINATTR PinName Vreg2
PINATTR SpiceOrder 20
PIN 176 272 RIGHT 8
PINATTR PinName SS2
PINATTR SpiceOrder 21
PIN 64 496 BOTTOM 8
PINATTR PinName Agnd2
PINATTR SpiceOrder 22
PIN 176 -288 RIGHT 8
PINATTR PinName SR2
PINATTR SpiceOrder 23
PIN 176 -368 RIGHT 8
PINATTR PinName SR1
PINATTR SpiceOrder 24
