Version 4
SymbolType CELL
RECTANGLE Normal -128 -192 128 192
TEXT 0 0 Center 2 ADI
WINDOW 0 0 -96 Center 2
WINDOW 3 0 96 Center 2
SYMATTR Value ADP1765-1.25
SYMATTR Prefix X
SYMATTR SpiceModel ADP7102.lib
SYMATTR Value2 ADP1765 Radj=8361.2
SYMATTR Description 5A, Low Vin, Low Noise, CMOS Linear Regulator, Fixed 1.25V Output
PIN -128 48 LEFT 8
PINATTR PinName Vreg
PINATTR SpiceOrder 1
PIN 0 -192 TOP 8
PINATTR PinName Vin
PINATTR SpiceOrder 2
PIN -128 -144 LEFT 8
PINATTR PinName EN
PINATTR SpiceOrder 3
PIN 128 -144 RIGHT 8
PINATTR PinName Vout
PINATTR SpiceOrder 4
PIN 128 -48 RIGHT 8
PINATTR PinName Sense
PINATTR SpiceOrder 5
PIN -128 -48 LEFT 8
PINATTR PinName PG
PINATTR SpiceOrder 6
PIN 0 192 BOTTOM 8
PINATTR PinName GND
PINATTR SpiceOrder 7
PIN 128 48 RIGHT 8
PINATTR PinName SS
PINATTR SpiceOrder 8
PIN -128 144 LEFT 8
PINATTR PinName RefCap
PINATTR SpiceOrder 9
PIN 128 144 RIGHT 8
PINATTR PinName Vadj
PINATTR SpiceOrder 10
