Version 4
SymbolType BLOCK
RECTANGLE Normal 128 128 -128 -128
TEXT 0 0 Center 2 ADI
TEXT 0 48 Center 2 ADP1607
WINDOW 0 0 -48 Center 2
SYMATTR Prefix X
SYMATTR SpiceModel ADP1607.sub
SYMATTR Value ADP1607
SYMATTR Description Extreme Low Voltage 2 MHz Synchronous Boost Converter PFM enabled at low load
SYMATTR Value2 ADP1607
PIN 128 0 RIGHT 8
PINATTR PinName Vout
PINATTR SpiceOrder 1
PIN 128 96 RIGHT 8
PINATTR PinName FB
PINATTR SpiceOrder 2
PIN -128 -96 LEFT 8
PINATTR PinName Vin
PINATTR SpiceOrder 3
PIN 128 -96 RIGHT 8
PINATTR PinName SW
PINATTR SpiceOrder 5
PIN -128 0 LEFT 8
PINATTR PinName EN
PINATTR SpiceOrder 7
PIN -128 96 LEFT 8
PINATTR PinName GND
PINATTR SpiceOrder 11
