Version 4
SymbolType BLOCK
RECTANGLE Normal 160 832 -160 -816
TEXT 0 8 Center 2 ADI
TEXT 0 344 Center 2 ADP1850
WINDOW 0 0 -216 Center 2
SYMATTR Prefix X
SYMATTR Value ADP1850
SYMATTR Description Wide Range Input, Dual/Two-Phase, DC-to-DC Channel Synchronous Buck Controller
SYMATTR ModelFile ADP1850.sub
PIN -160 -496 LEFT 8
PINATTR PinName Comp1
PINATTR SpiceOrder 1
PIN 160 -48 RIGHT 8
PINATTR PinName FB1
PINATTR SpiceOrder 2
PIN -160 176 LEFT 8
PINATTR PinName VccO
PINATTR SpiceOrder 3
PIN 160 -496 RIGHT 8
PINATTR PinName SW1
PINATTR SpiceOrder 4
PIN -64 832 BOTTOM 8
PINATTR PinName AGND
PINATTR SpiceOrder 5
PIN 160 -160 RIGHT 8
PINATTR PinName PGND1
PINATTR SpiceOrder 6
PIN 160 -608 RIGHT 8
PINATTR PinName BST1
PINATTR SpiceOrder 7
PIN 64 -816 TOP 8
PINATTR PinName Vin
PINATTR SpiceOrder 8
PIN -160 -720 LEFT 8
PINATTR PinName EN1
PINATTR SpiceOrder 9
PIN -160 -384 LEFT 8
PINATTR PinName Pgood1
PINATTR SpiceOrder 10
PIN -160 -272 LEFT 8
PINATTR PinName Freq
PINATTR SpiceOrder 11
PIN -64 -816 TOP 8
PINATTR PinName Ramp1
PINATTR SpiceOrder 12
PIN -160 -608 LEFT 8
PINATTR PinName SS1
PINATTR SpiceOrder 13
PIN -160 -48 LEFT 8
PINATTR PinName TRK1
PINATTR SpiceOrder 14
PIN 160 -272 RIGHT 8
PINATTR PinName DL1
PINATTR SpiceOrder 15
PIN 160 -720 RIGHT 8
PINATTR PinName DH1
PINATTR SpiceOrder 16
PIN -160 64 LEFT 8
PINATTR PinName VDL
PINATTR SpiceOrder 17
PIN -160 -160 LEFT 8
PINATTR PinName SYNC
PINATTR SpiceOrder 18
PIN 160 -384 RIGHT 8
PINATTR PinName ILIM1
PINATTR SpiceOrder 19
PIN 160 288 RIGHT 8
PINATTR PinName SW2
PINATTR SpiceOrder 23
PIN -160 736 LEFT 8
PINATTR PinName Comp2
PINATTR SpiceOrder 26
PIN 160 736 RIGHT 8
PINATTR PinName FB2
PINATTR SpiceOrder 27
PIN -160 512 LEFT 8
PINATTR PinName EN2
PINATTR SpiceOrder 28
PIN 160 176 RIGHT 8
PINATTR PinName BST2
PINATTR SpiceOrder 29
PIN -160 400 LEFT 8
PINATTR PinName Pgood2
PINATTR SpiceOrder 30
PIN 160 624 RIGHT 8
PINATTR PinName PGND2
PINATTR SpiceOrder 31
PIN -160 624 LEFT 8
PINATTR PinName SS2
PINATTR SpiceOrder 34
PIN 64 832 BOTTOM 8
PINATTR PinName Ramp2
PINATTR SpiceOrder 35
PIN 160 512 RIGHT 8
PINATTR PinName DL2
PINATTR SpiceOrder 36
PIN 160 64 RIGHT 8
PINATTR PinName DH2
PINATTR SpiceOrder 37
PIN 160 400 RIGHT 8
PINATTR PinName ILIM2
PINATTR SpiceOrder 40
PIN -160 288 LEFT 8
PINATTR PinName TRK2
PINATTR SpiceOrder 42
