Version 4
SymbolType CELL
RECTANGLE Normal -176 -288 176 288
TEXT 0 0 Center 2 ADI
WINDOW 0 0 -120 Center 2
WINDOW 3 0 121 Center 2
SYMATTR Value ADP1071-2
SYMATTR Prefix X
SYMATTR SpiceModel ADP1071-2.sub
SYMATTR Value2 ADP1071-2
SYMATTR Description Isolated Synchronous Flyback Controller with Integrated iCoupler, forced CCM operation
PIN -176 -160 LEFT 8
PINATTR PinName Gate
PINATTR SpiceOrder 1
PIN -64 288 BOTTOM 8
PINATTR PinName Agnd1
PINATTR SpiceOrder 2
PIN -176 -80 LEFT 8
PINATTR PinName Vreg1
PINATTR SpiceOrder 3
PIN -176 0 LEFT 8
PINATTR PinName Vin
PINATTR SpiceOrder 4
PIN -176 80 LEFT 8
PINATTR PinName EN
PINATTR SpiceOrder 5
PIN -176 -240 LEFT 8
PINATTR PinName CS
PINATTR SpiceOrder 6
PIN -176 160 LEFT 8
PINATTR PinName Rt
PINATTR SpiceOrder 7
PIN -176 240 LEFT 8
PINATTR PinName Sync
PINATTR SpiceOrder 8
PIN 176 240 RIGHT 8
PINATTR PinName SS2
PINATTR SpiceOrder 9
PIN 176 160 RIGHT 8
PINATTR PinName Comp
PINATTR SpiceOrder 10
PIN 176 80 RIGHT 8
PINATTR PinName FB
PINATTR SpiceOrder 11
PIN 176 0 RIGHT 8
PINATTR PinName OVP
PINATTR SpiceOrder 12
PIN 176 -80 RIGHT 8
PINATTR PinName Vdd2
PINATTR SpiceOrder 13
PIN 176 -160 RIGHT 8
PINATTR PinName Vreg2
PINATTR SpiceOrder 14
PIN 64 288 BOTTOM 8
PINATTR PinName Agnd2
PINATTR SpiceOrder 15
PIN 176 -240 RIGHT 8
PINATTR PinName SR
PINATTR SpiceOrder 16
