Version 4
SymbolType CELL
RECTANGLE Normal 144 176 -144 -176
TEXT 0 8 Center 2 ADI
TEXT 0 89 Center 2 ADP1612
WINDOW 0 0 -72 Center 2
SYMATTR Prefix X
SYMATTR SpiceModel ADP1612.sub
SYMATTR Value ADP1612
SYMATTR Description 650kHz /1.3MHz, 1.4A, Step-Up PWM DC-to-DC Switching Regulator\n\nNote: SS pin is not modeled.
SYMATTR Value2 ADP1612
PIN -144 112 LEFT 8
PINATTR PinName Comp
PINATTR SpiceOrder 1
PIN 144 48 RIGHT 8
PINATTR PinName FB
PINATTR SpiceOrder 2
PIN -144 -112 LEFT 8
PINATTR PinName EN
PINATTR SpiceOrder 3
PIN 0 176 BOTTOM 8
PINATTR PinName GND
PINATTR SpiceOrder 4
PIN 144 -80 RIGHT 8
PINATTR PinName SW
PINATTR SpiceOrder 5
PIN 0 -176 TOP 8
PINATTR PinName VIN
PINATTR SpiceOrder 6
PIN -144 0 LEFT 8
PINATTR PinName Freq
PINATTR SpiceOrder 7
