Version 4
SymbolType BLOCK
RECTANGLE Normal 144 176 -144 -176
TEXT 0 8 Center 2 ADI
TEXT 0 89 Center 2 ADP1621
WINDOW 0 0 -72 Center 2
SYMATTR Prefix X
SYMATTR SpiceModel ADP1621.sub
SYMATTR Value ADP1621
SYMATTR Description Constant-Frequency, Current-Mode Step-Up DC-to-DC Controller
SYMATTR Value2 ADP1621
PIN -144 128 LEFT 8
PINATTR PinName Freq
PINATTR SpiceOrder 1
PIN -144 -112 LEFT 8
PINATTR PinName SDSN
PINATTR SpiceOrder 2
PIN -64 -176 TOP 8
PINATTR PinName IN
PINATTR SpiceOrder 3
PIN 80 -176 TOP 8
PINATTR PinName Pin
PINATTR SpiceOrder 4
PIN 144 -112 RIGHT 8
PINATTR PinName Gate
PINATTR SpiceOrder 5
PIN 144 -32 RIGHT 8
PINATTR PinName CS
PINATTR SpiceOrder 6
PIN -144 48 LEFT 8
PINATTR PinName Comp
PINATTR SpiceOrder 7
PIN 144 128 RIGHT 8
PINATTR PinName FB
PINATTR SpiceOrder 8
PIN 144 48 RIGHT 8
PINATTR PinName PGND
PINATTR SpiceOrder 10
