Version 4
SymbolType BLOCK
RECTANGLE Normal 160 496 -160 -496
TEXT 0 0 Center 2 ADI
TEXT -1 168 Center 2 ADP1853
WINDOW 0 0 -169 Center 2
SYMATTR Prefix X
SYMATTR Value ADP1853
SYMATTR Description Synchronous, Step-Down DC-to-DC Controller with Voltage Tracking and Synchronization
SYMATTR ModelFile ADP1853.sub
PIN 160 336 RIGHT 8
PINATTR PinName Comp
PINATTR SpiceOrder 1
PIN 160 448 RIGHT 8
PINATTR PinName FB
PINATTR SpiceOrder 2
PIN -160 -224 LEFT 8
PINATTR PinName Vcco
PINATTR SpiceOrder 3
PIN 160 -224 RIGHT 8
PINATTR PinName SW
PINATTR SpiceOrder 4
PIN -160 448 LEFT 8
PINATTR PinName AGND
PINATTR SpiceOrder 5
PIN 160 224 RIGHT 8
PINATTR PinName PGND
PINATTR SpiceOrder 6
PIN 160 -336 RIGHT 8
PINATTR PinName BST
PINATTR SpiceOrder 7
PIN 48 -496 TOP 8
PINATTR PinName Vin
PINATTR SpiceOrder 8
PIN -160 -448 LEFT 8
PINATTR PinName EN
PINATTR SpiceOrder 9
PIN -160 336 LEFT 8
PINATTR PinName PGOOD
PINATTR SpiceOrder 10
PIN -160 0 LEFT 8
PINATTR PinName Freq
PINATTR SpiceOrder 11
PIN -64 -496 TOP 8
PINATTR PinName Ramp
PINATTR SpiceOrder 12
PIN -160 112 LEFT 8
PINATTR PinName SS
PINATTR SpiceOrder 13
PIN -160 -336 LEFT 8
PINATTR PinName TRK
PINATTR SpiceOrder 14
PIN 160 112 RIGHT 8
PINATTR PinName DL
PINATTR SpiceOrder 15
PIN 160 -448 RIGHT 8
PINATTR PinName DH
PINATTR SpiceOrder 16
PIN 160 -112 RIGHT 8
PINATTR PinName CS
PINATTR SpiceOrder 17
PIN -160 -112 LEFT 8
PINATTR PinName Sync
PINATTR SpiceOrder 18
PIN 160 0 RIGHT 8
PINATTR PinName ILIM
PINATTR SpiceOrder 19
PIN -160 224 LEFT 8
PINATTR PinName CLKOUT
PINATTR SpiceOrder 20
