Version 4
SymbolType CELL
RECTANGLE Normal -128 -128 128 128
TEXT 0 0 Center 2 ADI
WINDOW 0 0 -64 Center 2
WINDOW 3 0 64 Center 2
SYMATTR Value ADP151-1.2
SYMATTR Prefix X
SYMATTR SpiceModel ADP151-x.x.sub
SYMATTR Value2 ADP151-x.x T=200K
SYMATTR Description Ultralow Noise, 200mA, CMOS Linear Regulator, Fixed 1.2V Output
PIN 0 -128 TOP 8
PINATTR PinName Vin
PINATTR SpiceOrder 1
PIN 0 128 BOTTOM 8
PINATTR PinName GND
PINATTR SpiceOrder 2
PIN -128 0 LEFT 8
PINATTR PinName EN
PINATTR SpiceOrder 3
PIN 128 0 RIGHT 8
PINATTR PinName Vout
PINATTR SpiceOrder 5
