Version 4
SymbolType CELL
RECTANGLE Normal 159 384 -160 -384
TEXT 0 0 Center 2 ADI
WINDOW 0 0 -168 Center 2
WINDOW 3 1 160 Center 2
SYMATTR Value ADP1851
SYMATTR Prefix X
SYMATTR Description Wide Range Input, Synchronous, Step-Down DC-to-DC Controller
SYMATTR SpiceModel ADP1851.sub
SYMATTR Value2 ADP1851
PIN 160 336 RIGHT 8
PINATTR PinName Comp
PINATTR SpiceOrder 1
PIN -160 336 LEFT 8
PINATTR PinName FB
PINATTR SpiceOrder 2
PIN -160 -224 LEFT 8
PINATTR PinName VccO
PINATTR SpiceOrder 3
PIN 160 -112 RIGHT 8
PINATTR PinName SW
PINATTR SpiceOrder 4
PIN 0 384 BOTTOM 8
PINATTR PinName AGND
PINATTR SpiceOrder 5
PIN 160 224 RIGHT 8
PINATTR PinName PGND
PINATTR SpiceOrder 6
PIN 160 -224 RIGHT 8
PINATTR PinName BST
PINATTR SpiceOrder 7
PIN 48 -384 TOP 8
PINATTR PinName Vin
PINATTR SpiceOrder 8
PIN -160 -336 LEFT 8
PINATTR PinName EN
PINATTR SpiceOrder 9
PIN -160 224 LEFT 8
PINATTR PinName Pgood
PINATTR SpiceOrder 10
PIN -160 0 LEFT 8
PINATTR PinName Freq
PINATTR SpiceOrder 11
PIN -64 -384 TOP 8
PINATTR PinName Ramp
PINATTR SpiceOrder 12
PIN -160 112 LEFT 8
PINATTR PinName SS/TRK
PINATTR SpiceOrder 13
PIN 160 112 RIGHT 8
PINATTR PinName DL
PINATTR SpiceOrder 14
PIN 160 -336 RIGHT 8
PINATTR PinName DH
PINATTR SpiceOrder 15
PIN -160 -112 LEFT 8
PINATTR PinName Sync
PINATTR SpiceOrder 16
PIN 160 0 RIGHT 8
PINATTR PinName ILIM
PINATTR SpiceOrder 17
