Version 4
SymbolType CELL
RECTANGLE Normal -144 -144 144 144
TEXT 0 0 Center 2 ADI
WINDOW 0 0 -48 Center 2
WINDOW 3 0 48 Center 2
SYMATTR Value ADP2139-1.2
SYMATTR Prefix X
SYMATTR SpiceModel ADP2139-x.x.sub
SYMATTR Value2 ADP2139-x.x Rtop=112K
SYMATTR Description Compact, 3MHz, 800mA, Synchronous Step-Down Regulator with Output Discharge, Fixed 1.2V Output
PIN -144 -80 LEFT 8
PINATTR PinName Vin
PINATTR SpiceOrder 1
PIN -144 0 LEFT 8
PINATTR PinName EN
PINATTR SpiceOrder 2
PIN 144 -80 RIGHT 8
PINATTR PinName SW
PINATTR SpiceOrder 3
PIN 144 80 RIGHT 8
PINATTR PinName Vout
PINATTR SpiceOrder 4
PIN 0 144 BOTTOM 8
PINATTR PinName GND
PINATTR SpiceOrder 5
PIN -144 80 LEFT 8
PINATTR PinName Mode
PINATTR SpiceOrder 6
