Version 4
SymbolType CELL
RECTANGLE Normal -176 -272 176 288
TEXT 0 0 Center 2 ADI
WINDOW 0 -2 -165 Center 2
WINDOW 3 0 128 Center 2
SYMATTR Value ADP2164-1.0
SYMATTR Prefix X
SYMATTR SpiceModel ADP2164-x.x.sub
SYMATTR Value2 ADP2164-x.x Rtop=400K Rbot=600K
SYMATTR Description 6.5 V, 4 A, High Efficiency, Step-Down DC-to-DC Regulator, Fixed 1.0V output
PIN -176 32 LEFT 8
PINATTR PinName Sync
PINATTR SpiceOrder 1
PIN -176 176 LEFT 8
PINATTR PinName Rt
PINATTR SpiceOrder 2
PIN 176 -192 RIGHT 8
PINATTR PinName TRK
PINATTR SpiceOrder 3
PIN 176 32 RIGHT 8
PINATTR PinName FB
PINATTR SpiceOrder 4
PIN -64 288 BOTTOM 8
PINATTR PinName GND
PINATTR SpiceOrder 5
PIN 64 288 BOTTOM 8
PINATTR PinName PGND
PINATTR SpiceOrder 6
PIN 176 -80 RIGHT 8
PINATTR PinName SW
PINATTR SpiceOrder 7
PIN 0 -272 TOP 8
PINATTR PinName Pvin
PINATTR SpiceOrder 8
PIN -176 -192 LEFT 8
PINATTR PinName Vin
PINATTR SpiceOrder 9
PIN -176 -80 LEFT 8
PINATTR PinName EN
PINATTR SpiceOrder 10
PIN 176 176 RIGHT 8
PINATTR PinName Pgood
PINATTR SpiceOrder 11
