Version 4
SymbolType CELL
RECTANGLE Normal -112 -144 112 160
TEXT 0 0 Center 2 ADI
WINDOW 0 -1 -72 Center 2
WINDOW 3 1 88 Center 2
SYMATTR Value ADP2370-1.5
SYMATTR Prefix X
SYMATTR SpiceModel ADP2370.sub
SYMATTR Value2 ADP2370 IPSM=400m Rt=233333.3 Rb=266666.7 C1=9.6p Rc1=100k R3=5.92k Rshort=100MEG PD=0
SYMATTR Description High Voltage, 1.2MHz/600kHz, 800mA Low Quiescent Current Buck Regulator, Fixed 1.5V Output
PIN -112 48 LEFT 8
PINATTR PinName FSEL
PINATTR SpiceOrder 1
PIN -112 128 LEFT 8
PINATTR PinName SYNC
PINATTR SpiceOrder 2
PIN -112 -32 LEFT 8
PINATTR PinName EN
PINATTR SpiceOrder 3
PIN -112 -112 LEFT 8
PINATTR PinName Vin
PINATTR SpiceOrder 4
PIN 112 -32 RIGHT 8
PINATTR PinName SW
PINATTR SpiceOrder 5
PIN 112 128 RIGHT 8
PINATTR PinName FB
PINATTR SpiceOrder 6
PIN 112 -112 RIGHT 8
PINATTR PinName PG
PINATTR SpiceOrder 7
PIN 112 48 RIGHT 8
PINATTR PinName PGND
PINATTR SpiceOrder 8
