Version 4
SymbolType CELL
RECTANGLE Normal -128 -160 128 176
TEXT 0 0 Center 2 ADI
WINDOW 0 0 -64 Center 2
WINDOW 3 0 64 Center 2
SYMATTR Value ADP2303
SYMATTR Prefix X
SYMATTR SpiceModel ADP2302_3.sub
SYMATTR Value2 ADP2302_3 FREQ=0 CSGain=0.12 CL=0.66
SYMATTR Description 3 A, 20 V, 700kHz Nonsynchronous Step-Down Regulator
PIN -128 -128 LEFT 8
PINATTR PinName Vin
PINATTR SpiceOrder 1
PIN -128 0 LEFT 8
PINATTR PinName EN
PINATTR SpiceOrder 2
PIN 128 -128 RIGHT 8
PINATTR PinName BST
PINATTR SpiceOrder 3
PIN 128 0 RIGHT 8
PINATTR PinName SW
PINATTR SpiceOrder 4
PIN 128 128 RIGHT 8
PINATTR PinName FB
PINATTR SpiceOrder 5
PIN 0 176 BOTTOM 8
PINATTR PinName GND
PINATTR SpiceOrder 6
PIN -128 128 LEFT 8
PINATTR PinName PGood
PINATTR SpiceOrder 7
