Version 4
SymbolType CELL
RECTANGLE Normal -176 -272 176 288
TEXT 0 0 Center 2 ADI
TEXT -167 20 Left 2 Mode
WINDOW 0 0 -169 Center 2
WINDOW 3 -1 167 Center 2
SYMATTR Value ADP2442
SYMATTR Prefix X
SYMATTR SpiceModel ADP2442.sub
SYMATTR Value2 ADP2442
SYMATTR Description 1A, 36V, Synchronous, Step-Down DC-to-DC Regulator with External Clock Synchronization
PIN -176 224 LEFT 8
PINATTR PinName Comp
PINATTR SpiceOrder 1
PIN 176 0 RIGHT 8
PINATTR PinName FB
PINATTR SpiceOrder 2
PIN 176 112 RIGHT 8
PINATTR PinName Vcc
PINATTR SpiceOrder 3
PIN 176 -112 RIGHT 8
PINATTR PinName SW
PINATTR SpiceOrder 4
PIN -64 288 BOTTOM 8
PINATTR PinName GND
PINATTR SpiceOrder 5
PIN 64 288 BOTTOM 8
PINATTR PinName PGND
PINATTR SpiceOrder 6
PIN 176 -224 RIGHT 8
PINATTR PinName BST
PINATTR SpiceOrder 7
PIN -176 -224 LEFT 8
PINATTR PinName Vin
PINATTR SpiceOrder 8
PIN -176 -112 LEFT 8
PINATTR PinName EN
PINATTR SpiceOrder 9
PIN 176 224 RIGHT 8
PINATTR PinName Pgood
PINATTR SpiceOrder 10
PIN -176 112 LEFT 8
PINATTR PinName Freq
PINATTR SpiceOrder 11
PIN -176 0 LEFT 8
PINATTR PinName Sync/
PINATTR SpiceOrder 12
