Version 4
SymbolType CELL
RECTANGLE Normal -128 -256 128 80
TEXT 0 -88 Center 2 ADI
WINDOW 0 0 -168 Center 2
WINDOW 3 0 -8 Center 2
SYMATTR Value ADP2120-ADJ
SYMATTR Prefix X
SYMATTR SpiceModel ADP2120-ADJ.sub
SYMATTR Description Adjustable Output 1.25A 1.2MHz Synchronous Step-Down DC-DC Regulator
SYMATTR Value2 ADP2120-ADJ
PIN -128 -208 LEFT 8
PINATTR PinName Vin
PINATTR SpiceOrder 1
PIN 0 -256 TOP 8
PINATTR PinName Pvin
PINATTR SpiceOrder 2
PIN 128 -128 RIGHT 8
PINATTR PinName SW
PINATTR SpiceOrder 3
PIN 128 -48 RIGHT 8
PINATTR PinName PGND
PINATTR SpiceOrder 4
PIN 0 80 BOTTOM 8
PINATTR PinName GND
PINATTR SpiceOrder 5
PIN 128 32 RIGHT 8
PINATTR PinName FB
PINATTR SpiceOrder 6
PIN -128 -48 LEFT 8
PINATTR PinName TRK
PINATTR SpiceOrder 7
PIN 128 -208 RIGHT 8
PINATTR PinName Pgood
PINATTR SpiceOrder 8
PIN -128 32 LEFT 8
PINATTR PinName Sync/Mode
PINATTR SpiceOrder 9
PIN -128 -128 LEFT 8
PINATTR PinName EN
PINATTR SpiceOrder 10
