Version 4
SymbolType CELL
RECTANGLE Normal -128 -240 128 144
TEXT 0 -88 Center 2 ADI
WINDOW 0 0 -168 Center 2
WINDOW 3 0 -8 Center 2
SYMATTR Value ADP2118-1.8
SYMATTR Prefix X
SYMATTR SpiceModel ADP2118-x.x.sub
SYMATTR Description 3A 1.2MHz/600kHz High Efficiency Synchronous Step-Down DC-DC Regulator, Fixed 1.8V Output
SYMATTR Value2 ADP2118-x.x Rtop=666.7k Rbot=333.3k Ctop=4p
PIN -128 32 LEFT 8
PINATTR PinName Sync/Mode
PINATTR SpiceOrder 1
PIN -128 112 LEFT 8
PINATTR PinName FREQ
PINATTR SpiceOrder 2
PIN -128 -48 LEFT 8
PINATTR PinName TRK
PINATTR SpiceOrder 3
PIN 128 32 RIGHT 8
PINATTR PinName FB
PINATTR SpiceOrder 4
PIN 0 144 BOTTOM 8
PINATTR PinName GND
PINATTR SpiceOrder 5
PIN 128 -48 RIGHT 8
PINATTR PinName PGND
PINATTR SpiceOrder 6
PIN 128 -128 RIGHT 8
PINATTR PinName SW
PINATTR SpiceOrder 7
PIN 0 -240 TOP 8
PINATTR PinName Pvin
PINATTR SpiceOrder 8
PIN -128 -208 LEFT 8
PINATTR PinName Vin
PINATTR SpiceOrder 9
PIN -128 -128 LEFT 8
PINATTR PinName EN
PINATTR SpiceOrder 10
PIN 128 -208 RIGHT 8
PINATTR PinName Pgood
PINATTR SpiceOrder 11
