Version 4
SymbolType CELL
RECTANGLE Normal -160 -256 160 272
TEXT 0 0 Center 2 ADI
WINDOW 0 0 -152 Center 2
WINDOW 3 0 168 Center 2
SYMATTR Value ADP2165-1.5
SYMATTR Prefix X
SYMATTR SpiceModel ADP2165-x.x.sub
SYMATTR Value2 ADP2165-x.x Rtop=600K Rbot=400K
SYMATTR Description 5.5V, 5A, High Efficiency, Synchronous Buck Regulator with Output Tracking, Fixed 1.5V output
PIN -160 -32 LEFT 8
PINATTR PinName SYNC
PINATTR SpiceOrder 1
PIN -160 128 LEFT 8
PINATTR PinName Rt
PINATTR SpiceOrder 2
PIN -160 48 LEFT 8
PINATTR PinName TRK
PINATTR SpiceOrder 3
PIN 160 128 RIGHT 8
PINATTR PinName FB
PINATTR SpiceOrder 4
PIN 48 272 BOTTOM 8
PINATTR PinName Gnd
PINATTR SpiceOrder 5
PIN -48 272 BOTTOM 8
PINATTR PinName Pgnd
PINATTR SpiceOrder 6
PIN 160 -32 RIGHT 8
PINATTR PinName SW
PINATTR SpiceOrder 7
PIN 48 -256 TOP 8
PINATTR PinName Pvin
PINATTR SpiceOrder 8
PIN -48 -256 TOP 8
PINATTR PinName Avin
PINATTR SpiceOrder 9
PIN -160 -192 LEFT 8
PINATTR PinName EN
PINATTR SpiceOrder 10
PIN 160 -192 RIGHT 8
PINATTR PinName Pgood
PINATTR SpiceOrder 11
PIN 160 208 RIGHT 8
PINATTR PinName SS
PINATTR SpiceOrder 12
PIN -160 208 LEFT 8
PINATTR PinName Comp
PINATTR SpiceOrder 13
PIN 160 -112 RIGHT 8
PINATTR PinName Bst
PINATTR SpiceOrder 14
PIN -160 -112 LEFT 8
PINATTR PinName Vreg
PINATTR SpiceOrder 15
