Version 4
SymbolType CELL
RECTANGLE Normal -128 -160 128 176
TEXT 0 9 Center 2 ADI
WINDOW 0 0 -72 Center 2
WINDOW 3 0 92 Center 2
SYMATTR Value ADP2504-4.5
SYMATTR Prefix X
SYMATTR SpiceModel ADP2503_4.sub
SYMATTR Value2 ADP2503_4 Vout=4.5 Limit=1.65 R2=100k
SYMATTR Description 1A, 2.5MHz Buck-Boost DC to DC Converters
PIN 128 -112 RIGHT 8
PINATTR PinName SW1
PINATTR SpiceOrder 1
PIN 128 -32 RIGHT 8
PINATTR PinName SW2
PINATTR SpiceOrder 2
PIN 128 128 RIGHT 8
PINATTR PinName FB
PINATTR SpiceOrder 3
PIN -128 -32 LEFT 8
PINATTR PinName EN
PINATTR SpiceOrder 4
PIN -128 -112 LEFT 8
PINATTR PinName PVin
PINATTR SpiceOrder 5
PIN -128 128 LEFT 8
PINATTR PinName GND
PINATTR SpiceOrder 6
PIN 128 48 RIGHT 8
PINATTR PinName Vout
PINATTR SpiceOrder 7
PIN -128 48 LEFT 8
PINATTR PinName Sync
PINATTR SpiceOrder 8
