Version 4
SymbolType CELL
RECTANGLE Normal -144 -144 144 144
TEXT 0 0 Center 2 ADI
WINDOW 0 0 -48 Center 2
WINDOW 3 0 48 Center 2
SYMATTR Value ADP2108-1.3
SYMATTR Prefix X
SYMATTR SpiceModel ADP2108-x.x.sub
SYMATTR Value2 ADP2108-x.x Rtop=128K
SYMATTR Description Compact, 3MHz, 600mA, Synchronous Step-Down Regulator, Fixed 1.3V Output
PIN -144 -80 LEFT 8
PINATTR PinName Vin
PINATTR SpiceOrder 1
PIN -144 80 LEFT 8
PINATTR PinName EN
PINATTR SpiceOrder 2
PIN 144 -80 RIGHT 8
PINATTR PinName SW
PINATTR SpiceOrder 3
PIN 144 80 RIGHT 8
PINATTR PinName FB
PINATTR SpiceOrder 4
PIN 0 144 BOTTOM 8
PINATTR PinName GND
PINATTR SpiceOrder 5
