Version 4
SymbolType CELL
RECTANGLE Normal -144 -144 144 144
TEXT 0 0 Center 2 ADI
WINDOW 0 0 -48 Center 2
WINDOW 3 0 48 Center 2
SYMATTR Value ADP2109-1.0
SYMATTR Prefix X
SYMATTR SpiceModel ADP2109-x.x.sub
SYMATTR Value2 ADP2109-x.x Rtop=80K
SYMATTR Description Compact 3MHz, 600mA, Synchronous Step-Down Regulator with Output Discharge, Fixed 1.0V Output
PIN -144 -80 LEFT 8
PINATTR PinName Vin
PINATTR SpiceOrder 1
PIN -144 80 LEFT 8
PINATTR PinName EN
PINATTR SpiceOrder 2
PIN 144 -80 RIGHT 8
PINATTR PinName SW
PINATTR SpiceOrder 3
PIN 144 80 RIGHT 8
PINATTR PinName FB
PINATTR SpiceOrder 4
PIN 0 144 BOTTOM 8
PINATTR PinName GND
PINATTR SpiceOrder 5
