Version 4
SymbolType CELL
RECTANGLE Normal -128 -128 128 144
TEXT 0 0 Center 2 LT
WINDOW 0 0 -64 Center 2
WINDOW 3 0 64 Center 2
SYMATTR Value ADP2360-5.0
SYMATTR Prefix X
SYMATTR SpiceModel ADP2360-5.0.sub
SYMATTR Value2 ADP2360-5.0
SYMATTR Description 60V 50mA High Efficiency Buck Regulator, Fixed 5V Output
PIN -128 -96 LEFT 8
PINATTR PinName EN
PINATTR SpiceOrder 1
PIN -128 -32 LEFT 8
PINATTR PinName PG
PINATTR SpiceOrder 2
PIN -128 32 LEFT 8
PINATTR PinName Ith
PINATTR SpiceOrder 3
PIN 128 32 RIGHT 8
PINATTR PinName FB
PINATTR SpiceOrder 4
PIN -128 96 LEFT 8
PINATTR PinName SS
PINATTR SpiceOrder 5
PIN 48 144 BOTTOM 8
PINATTR PinName PGND
PINATTR SpiceOrder 6
PIN 128 -96 RIGHT 8
PINATTR PinName SW
PINATTR SpiceOrder 7
PIN 0 -128 TOP 8
PINATTR PinName Vin
PINATTR SpiceOrder 8
PIN -48 144 BOTTOM 8
PINATTR PinName AGND
PINATTR SpiceOrder 9
