Version 4
SymbolType CELL
RECTANGLE Normal -112 -144 112 160
TEXT 0 0 Center 2 ADI
WINDOW 0 0 -72 Center 2
WINDOW 3 0 88 Center 2
SYMATTR Value ADP2371-3.3
SYMATTR Prefix X
SYMATTR SpiceModel ADP2370.sub
SYMATTR Value2 ADP2370 IPSM=440m Rt=378787.879 Rb=121212.121 C1=1.6p Rc1=300k R3=5.92k Rshort=100MEG PD=1
SYMATTR Description High Voltage, 1.2MHz/600kHz, 800mA Low Quiescent Current Buck Regulator, Fixed 3.3V Output with Quick Output Discharge(QOD)
PIN -112 48 LEFT 8
PINATTR PinName FSEL
PINATTR SpiceOrder 1
PIN -112 128 LEFT 8
PINATTR PinName SYNC
PINATTR SpiceOrder 2
PIN -112 -32 LEFT 8
PINATTR PinName EN
PINATTR SpiceOrder 3
PIN -112 -112 LEFT 8
PINATTR PinName Vin
PINATTR SpiceOrder 4
PIN 112 -32 RIGHT 8
PINATTR PinName SW
PINATTR SpiceOrder 5
PIN 112 128 RIGHT 8
PINATTR PinName FB
PINATTR SpiceOrder 6
PIN 112 -112 RIGHT 8
PINATTR PinName PG
PINATTR SpiceOrder 7
PIN 112 48 RIGHT 8
PINATTR PinName PGND
PINATTR SpiceOrder 8
