Version 4
SymbolType CELL
RECTANGLE Normal -160 -272 160 272
TEXT 0 0 Center 2 ADI
WINDOW 0 0 -169 Center 2
WINDOW 3 -1 167 Center 2
SYMATTR Value ADP2389
SYMATTR Prefix X
SYMATTR SpiceModel ADP2389.sub
SYMATTR Value2 ADP2389
SYMATTR Description 18V, 12A, Programmable current limit, Synchronous Buck Regulator with Enhanced transient response
PIN 160 208 RIGHT 8
PINATTR PinName Rt
PINATTR SpiceOrder 1
PIN 48 -272 TOP 8
PINATTR PinName Pvin
PINATTR SpiceOrder 2
PIN 160 -32 RIGHT 8
PINATTR PinName SW
PINATTR SpiceOrder 3
PIN -160 128 LEFT 8
PINATTR PinName Comp
PINATTR SpiceOrder 4
PIN 160 128 RIGHT 8
PINATTR PinName FB
PINATTR SpiceOrder 5
PIN -160 -192 LEFT 8
PINATTR PinName EN
PINATTR SpiceOrder 6
PIN 160 -112 RIGHT 8
PINATTR PinName BST
PINATTR SpiceOrder 7
PIN -160 208 LEFT 8
PINATTR PinName SS
PINATTR SpiceOrder 8
PIN -48 272 BOTTOM 8
PINATTR PinName Gnd
PINATTR SpiceOrder 9
PIN -160 48 LEFT 8
PINATTR PinName Ilim
PINATTR SpiceOrder 10
PIN 160 -192 RIGHT 8
PINATTR PinName Pgood
PINATTR SpiceOrder 11
PIN -160 -112 LEFT 8
PINATTR PinName Vreg
PINATTR SpiceOrder 12
PIN -160 -32 LEFT 8
PINATTR PinName Ftw
PINATTR SpiceOrder 13
PIN -48 -272 TOP 8
PINATTR PinName Vin
PINATTR SpiceOrder 14
PIN 48 272 BOTTOM 8
PINATTR PinName Pgnd
PINATTR SpiceOrder 15
