Version 4
SymbolType CELL
RECTANGLE Normal -128 -160 128 160
TEXT 0 0 Center 2 ADI
WINDOW 0 0 -80 Center 2
WINDOW 3 0 64 Center 2
SYMATTR Value ADP2301
SYMATTR Prefix X
SYMATTR SpiceModel ADP2300_1.sub
SYMATTR Value2 ADP2300_1 FREQ=1 CSGain=0.25
SYMATTR Description 1.2A, 20V, 1.4MHz Nonsynchronous Step-Down Regulator
PIN -128 -128 LEFT 8
PINATTR PinName Vin
PINATTR SpiceOrder 1
PIN -128 0 LEFT 8
PINATTR PinName EN
PINATTR SpiceOrder 2
PIN 128 -128 RIGHT 8
PINATTR PinName BST
PINATTR SpiceOrder 3
PIN 128 0 RIGHT 8
PINATTR PinName SW
PINATTR SpiceOrder 4
PIN 128 128 RIGHT 8
PINATTR PinName FB
PINATTR SpiceOrder 5
PIN -128 128 LEFT 8
PINATTR PinName GND
PINATTR SpiceOrder 6
