Version 4
SymbolType CELL
RECTANGLE Normal -128 -128 128 128
TEXT 0 0 Center 2 ADI
WINDOW 0 0 -49 Center 2
WINDOW 3 0 50 Center 2
SYMATTR Value ADP3654
SYMATTR Prefix X
SYMATTR SpiceModel ADP3654.sub
SYMATTR Value2 ADP3654
SYMATTR Description High Speed, Dual, 4A MOSFET Driver
PIN 128 96 RIGHT 8
PINATTR PinName PGND
PINATTR SpiceOrder 1
PIN -128 -96 LEFT 8
PINATTR PinName INA
PINATTR SpiceOrder 2
PIN -128 0 LEFT 8
PINATTR PinName INB
PINATTR SpiceOrder 3
PIN 128 -96 RIGHT 8
PINATTR PinName OUTA
PINATTR SpiceOrder 4
PIN 128 0 RIGHT 8
PINATTR PinName OUTB
PINATTR SpiceOrder 5
PIN -128 96 LEFT 8
PINATTR PinName VDD
PINATTR SpiceOrder 6
