Version 4
SymbolType CELL
RECTANGLE Normal -128 -160 128 176
TEXT 0 0 Center 2 ADI
WINDOW 0 0 -88 Center 2
WINDOW 3 0 72 Center 2
SYMATTR Value ADP5303-3
SYMATTR Prefix X
SYMATTR SpiceModel ADP5303-3.sub
SYMATTR Description 50mA/500mA High Efficiency Ultralow Power Step-Down Regulator\n\nOutput Voltage Option0 with Output Discharge, 2.8ms Soft Start Timer
SYMATTR Value2 ADP5303-3
PIN -128 -48 LEFT 8
PINATTR PinName EN
PINATTR SpiceOrder 1
PIN -128 -128 LEFT 8
PINATTR PinName PVin
PINATTR SpiceOrder 2
PIN -128 112 LEFT 8
PINATTR PinName Sync/Mode
PINATTR SpiceOrder 3
PIN -128 32 LEFT 8
PINATTR PinName VID
PINATTR SpiceOrder 4
PIN 128 32 RIGHT 8
PINATTR PinName FB
PINATTR SpiceOrder 5
PIN 128 -128 RIGHT 8
PINATTR PinName VinOK
PINATTR SpiceOrder 6
PIN 128 112 RIGHT 8
PINATTR PinName Pgnd
PINATTR SpiceOrder 7
PIN 0 176 BOTTOM 8
PINATTR PinName Agnd
PINATTR SpiceOrder 8
PIN 128 -48 RIGHT 8
PINATTR PinName SW
PINATTR SpiceOrder 9
