Version 4
SymbolType BLOCK
RECTANGLE Normal 224 640 -240 -624
TEXT 0 0 Center 2 ADI
WINDOW 3 0 240 Center 2
WINDOW 0 0 -240 Center 2
WINDOW 39 -10 319 Center 2
WINDOW 40 -11 344 Center 2
SYMATTR Value ADP5055
SYMATTR SpiceLine Vref1=.6 Vref2=.6 Vref3=.6
SYMATTR SpiceLine2 FT1=3  FT2=3 FT3=3
SYMATTR Prefix X
SYMATTR Description Integrated Power Solution with Triple Buck Regulators and PMBus Interface
SYMATTR ModelFile ADP5055.sub
PIN 224 480 RIGHT 8
PINATTR PinName Cfg1
PINATTR SpiceOrder 1
PIN 224 576 RIGHT 8
PINATTR PinName Cfg2
PINATTR SpiceOrder 2
PIN -240 -384 LEFT 8
PINATTR PinName Ramp1
PINATTR SpiceOrder 3
PIN 224 -192 RIGHT 8
PINATTR PinName FB1
PINATTR SpiceOrder 4
PIN -240 -192 LEFT 8
PINATTR PinName Comp1
PINATTR SpiceOrder 5
PIN -240 576 LEFT 8
PINATTR PinName RT
PINATTR SpiceOrder 6
PIN -240 -288 LEFT 8
PINATTR PinName EN1
PINATTR SpiceOrder 7
PIN 80 640 BOTTOM 8
PINATTR PinName Agnd
PINATTR SpiceOrder 8
PIN -240 -480 LEFT 8
PINATTR PinName Vreg
PINATTR SpiceOrder 9
PIN 224 -576 RIGHT 8
PINATTR PinName Vbias
PINATTR SpiceOrder 10
PIN -240 480 LEFT 8
PINATTR PinName Mode/Sync
PINATTR SpiceOrder 11
PIN 224 -384 RIGHT 8
PINATTR PinName Bst1
PINATTR SpiceOrder 12
PIN 224 192 RIGHT 8
PINATTR PinName Bst3
PINATTR SpiceOrder 13
PIN -96 640 BOTTOM 8
PINATTR PinName Pgnd
PINATTR SpiceOrder 14
PIN 224 288 RIGHT 8
PINATTR PinName SW3
PINATTR SpiceOrder 15
PIN 80 -624 TOP 8
PINATTR PinName Pvin3
PINATTR SpiceOrder 16
PIN 224 -96 RIGHT 8
PINATTR PinName Bst2
PINATTR SpiceOrder 17
PIN -240 288 LEFT 8
PINATTR PinName EN3
PINATTR SpiceOrder 18
PIN -240 192 LEFT 8
PINATTR PinName Ramp3
PINATTR SpiceOrder 19
PIN 224 384 RIGHT 8
PINATTR PinName FB3
PINATTR SpiceOrder 20
PIN -240 384 LEFT 8
PINATTR PinName Comp3
PINATTR SpiceOrder 21
PIN 224 -480 RIGHT 8
PINATTR PinName Pwrgd
PINATTR SpiceOrder 22
PIN -240 0 LEFT 8
PINATTR PinName EN2
PINATTR SpiceOrder 23
PIN -240 96 LEFT 8
PINATTR PinName Comp2
PINATTR SpiceOrder 24
PIN 224 96 RIGHT 8
PINATTR PinName FB2
PINATTR SpiceOrder 25
PIN -240 -96 LEFT 8
PINATTR PinName Ramp2
PINATTR SpiceOrder 26
PIN -96 -624 TOP 8
PINATTR PinName Pvin2
PINATTR SpiceOrder 27
PIN 224 0 RIGHT 8
PINATTR PinName SW2
PINATTR SpiceOrder 28
PIN 224 -288 RIGHT 8
PINATTR PinName SW1
PINATTR SpiceOrder 29
PIN -240 -576 LEFT 8
PINATTR PinName Pvin1
PINATTR SpiceOrder 30
