Version 4
SymbolType CELL
RECTANGLE Normal -144 -496 144 496
TEXT 0 0 Center 2 ADI
WINDOW 0 0 -280 Center 2
WINDOW 3 0 279 Center 2
SYMATTR Value ADP5070
SYMATTR Prefix X
SYMATTR SpiceModel ADP5070_1.sub
SYMATTR Value2 ADP5070_1 CL1=1.1 CS1=151.83m Ron1=175m CL2=0.6 CS2=151.83m Ron2=350m IQ=3.5m SS=1 CL_INBK1=1 CL_INBK2=2
SYMATTR Description 1A/0.6A, DC to DC Switching Regulator with Independent Positive and Negative Outputs
PIN -144 336 LEFT 8
PINATTR PinName Sync/Freq
PINATTR SpiceOrder 1
PIN -144 -112 LEFT 8
PINATTR PinName EN1
PINATTR SpiceOrder 2
PIN 144 448 RIGHT 8
PINATTR PinName Comp2
PINATTR SpiceOrder 3
PIN -144 -224 LEFT 8
PINATTR PinName PVinSys
PINATTR SpiceOrder 4
PIN 144 -336 RIGHT 8
PINATTR PinName SW1
PINATTR SpiceOrder 5
PIN -144 -448 LEFT 8
PINATTR PinName PVin1
PINATTR SpiceOrder 6
PIN 144 -112 RIGHT 8
PINATTR PinName Comp1
PINATTR SpiceOrder 7
PIN 144 -224 RIGHT 8
PINATTR PinName FB1
PINATTR SpiceOrder 8
PIN 144 112 RIGHT 8
PINATTR PinName Slew
PINATTR SpiceOrder 9
PIN 0 496 BOTTOM 8
PINATTR PinName PGND
PINATTR SpiceOrder 10
PIN -144 112 LEFT 8
PINATTR PinName Vreg
PINATTR SpiceOrder 11
PIN -144 224 LEFT 8
PINATTR PinName SS
PINATTR SpiceOrder 12
PIN 144 224 RIGHT 8
PINATTR PinName FB2
PINATTR SpiceOrder 13
PIN -144 448 LEFT 8
PINATTR PinName AGND
PINATTR SpiceOrder 14
PIN 144 -448 RIGHT 8
PINATTR PinName INBK
PINATTR SpiceOrder 15
PIN -144 0 LEFT 8
PINATTR PinName EN2
PINATTR SpiceOrder 16
PIN -144 -336 LEFT 8
PINATTR PinName PVin2
PINATTR SpiceOrder 17
PIN 144 336 RIGHT 8
PINATTR PinName Vref
PINATTR SpiceOrder 18
PIN 144 0 RIGHT 8
PINATTR PinName SW2
PINATTR SpiceOrder 19
