Version 4
SymbolType BLOCK
RECTANGLE Normal 160 592 -160 -592
TEXT 0 0 Center 2 ADI
TEXT 0 281 Center 2 ADP5014_chan3_4
WINDOW 0 0 -336 Center 2
WINDOW 39 0 409 Center 2
WINDOW 40 -1 376 Center 2
SYMATTR SpiceLine CL1=3.5 CL2=3.5 PSM=0
SYMATTR SpiceLine2 timer=1 parallel=0
SYMATTR Prefix X
SYMATTR Value ADP5014
SYMATTR Description Switcher model of channels 3 and 4 of ADP5014
SYMATTR ModelFile ADP5014.sub
SYMATTR Value2 RP=95m RN=73m CS=0.12
PIN -160 336 LEFT 8
PINATTR PinName Rt
PINATTR SpiceOrder 1
PIN -160 448 LEFT 8
PINATTR PinName SYNC
PINATTR SpiceOrder 2
PIN -160 -224 LEFT 8
PINATTR PinName Vset1
PINATTR SpiceOrder 3
PIN -160 -560 LEFT 8
PINATTR PinName PVin1
PINATTR SpiceOrder 4
PIN 160 -560 RIGHT 8
PINATTR PinName SW1
PINATTR SpiceOrder 5
PIN 160 -336 RIGHT 8
PINATTR PinName FB1
PINATTR SpiceOrder 6
PIN 160 -224 RIGHT 8
PINATTR PinName Comp1
PINATTR SpiceOrder 7
PIN -160 -336 LEFT 8
PINATTR PinName EN1
PINATTR SpiceOrder 8
PIN -160 224 LEFT 8
PINATTR PinName Vref
PINATTR SpiceOrder 9
PIN 160 -448 RIGHT 8
PINATTR PinName PGND1
PINATTR SpiceOrder 10
PIN 160 0 RIGHT 8
PINATTR PinName PGND2
PINATTR SpiceOrder 11
PIN -160 -448 LEFT 8
PINATTR PinName AVin
PINATTR SpiceOrder 12
PIN 160 336 RIGHT 8
PINATTR PinName CLKout
PINATTR SpiceOrder 13
PIN 160 448 RIGHT 8
PINATTR PinName PWRGD
PINATTR SpiceOrder 14
PIN -160 560 LEFT 8
PINATTR PinName UV
PINATTR SpiceOrder 15
PIN 160 560 RIGHT 8
PINATTR PinName UVO
PINATTR SpiceOrder 16
PIN 160 -112 RIGHT 8
PINATTR PinName SW2
PINATTR SpiceOrder 17
PIN 160 224 RIGHT 8
PINATTR PinName Comp2
PINATTR SpiceOrder 18
PIN 160 112 RIGHT 8
PINATTR PinName FB2
PINATTR SpiceOrder 19
PIN -160 0 LEFT 8
PINATTR PinName EN2
PINATTR SpiceOrder 20
PIN -160 -112 LEFT 8
PINATTR PinName PVin2
PINATTR SpiceOrder 21
PIN -160 112 LEFT 8
PINATTR PinName Vset2
PINATTR SpiceOrder 22
