Version 4
SymbolType CELL
RECTANGLE Normal 176 512 -176 -368
TEXT 0 64 Center 2 ADI
WINDOW 3 -5 210 Center 2
WINDOW 0 -1 -73 Center 2
SYMATTR Value ADP5003
SYMATTR Prefix X
SYMATTR SpiceModel ADP5003.sub
SYMATTR Value2 ADP5003
SYMATTR Description Low Noise Micro PMU,3 A Buck Regulator with 3 A LDO
PIN 176 64 RIGHT 8
PINATTR PinName Sync
PINATTR SpiceOrder 1
PIN 176 -224 RIGHT 8
PINATTR PinName Vout1
PINATTR SpiceOrder 2
PIN 64 -368 TOP 8
PINATTR PinName EN1
PINATTR SpiceOrder 3
PIN -176 -320 LEFT 8
PINATTR PinName EN2
PINATTR SpiceOrder 4
PIN -64 512 BOTTOM 8
PINATTR PinName Agnd
PINATTR SpiceOrder 5
PIN 64 512 BOTTOM 8
PINATTR PinName Pgnd
PINATTR SpiceOrder 6
PIN -176 -128 LEFT 8
PINATTR PinName Vreg
PINATTR SpiceOrder 7
PIN 176 160 RIGHT 8
PINATTR PinName Pvin2
PINATTR SpiceOrder 8
PIN 176 256 RIGHT 8
PINATTR PinName Pvout2
PINATTR SpiceOrder 9
PIN -176 -32 LEFT 8
PINATTR PinName Pvinsys
PINATTR SpiceOrder 10
PIN 176 -320 RIGHT 8
PINATTR PinName SW1
PINATTR SpiceOrder 11
PIN 176 352 RIGHT 8
PINATTR PinName Vfb2p
PINATTR SpiceOrder 12
PIN 176 448 RIGHT 8
PINATTR PinName Vfb2n
PINATTR SpiceOrder 13
PIN -176 352 LEFT 8
PINATTR PinName Vbuf
PINATTR SpiceOrder 14
PIN -64 -368 TOP 8
PINATTR PinName Pvin1
PINATTR SpiceOrder 15
PIN -176 448 LEFT 8
PINATTR PinName Vreg_ldo
PINATTR SpiceOrder 16
PIN -176 256 LEFT 8
PINATTR PinName Vset2
PINATTR SpiceOrder 17
PIN -176 160 LEFT 8
PINATTR PinName Refout
PINATTR SpiceOrder 18
PIN -176 64 LEFT 8
PINATTR PinName Vset1
PINATTR SpiceOrder 19
PIN 176 -32 RIGHT 8
PINATTR PinName Pwrgd
PINATTR SpiceOrder 20
PIN -176 -224 LEFT 8
PINATTR PinName Comp1
PINATTR SpiceOrder 21
PIN 176 -128 RIGHT 8
PINATTR PinName RT
PINATTR SpiceOrder 22
