Version 4
SymbolType CELL
RECTANGLE Normal 224 544 -240 -624
TEXT 0 -48 Center 2 ADI
WINDOW 3 0 240 Center 2
WINDOW 0 0 -240 Center 2
SYMATTR Value ADP5138-1
SYMATTR Prefix X
SYMATTR SpiceModel ADP5138-1.sub
SYMATTR Value2 ADP5138-1
SYMATTR Description Quad, 1A, 5.5V, Synchronous Step-Down Regulators with One RF LDO, Fixed Output Version \n\nNote: Enable delay time in the model is reduced toTssD/3
PIN -240 -480 LEFT 8
PINATTR PinName PVin1
PINATTR SpiceOrder 1
PIN 224 -480 RIGHT 8
PINATTR PinName SW1
PINATTR SpiceOrder 2
PIN -144 544 BOTTOM 8
PINATTR PinName PGND1
PINATTR SpiceOrder 3
PIN 224 464 RIGHT 8
PINATTR PinName GND
PINATTR SpiceOrder 4
PIN 224 -288 RIGHT 8
PINATTR PinName SW2
PINATTR SpiceOrder 5
PIN -240 -288 LEFT 8
PINATTR PinName PVin2
PINATTR SpiceOrder 6
PIN 224 -192 RIGHT 8
PINATTR PinName FB2
PINATTR SpiceOrder 7
PIN -240 -192 LEFT 8
PINATTR PinName EN2
PINATTR SpiceOrder 8
PIN 224 -560 RIGHT 8
PINATTR PinName POR
PINATTR SpiceOrder 9
PIN -240 288 LEFT 8
PINATTR PinName PVin5
PINATTR SpiceOrder 10
PIN 224 384 RIGHT 8
PINATTR PinName FB5
PINATTR SpiceOrder 11
PIN 224 288 RIGHT 8
PINATTR PinName Vout5
PINATTR SpiceOrder 12
PIN -240 384 LEFT 8
PINATTR PinName EN5
PINATTR SpiceOrder 13
PIN -240 0 LEFT 8
PINATTR PinName EN3
PINATTR SpiceOrder 14
PIN 224 0 RIGHT 8
PINATTR PinName FB3
PINATTR SpiceOrder 15
PIN -240 -96 LEFT 8
PINATTR PinName PVin3
PINATTR SpiceOrder 16
PIN 224 -96 RIGHT 8
PINATTR PinName SW3
PINATTR SpiceOrder 17
PIN 48 544 BOTTOM 8
PINATTR PinName PGND3
PINATTR SpiceOrder 18
PIN 144 544 BOTTOM 8
PINATTR PinName PGND4
PINATTR SpiceOrder 19
PIN 224 96 RIGHT 8
PINATTR PinName SW4
PINATTR SpiceOrder 20
PIN -240 96 LEFT 8
PINATTR PinName PVin4
PINATTR SpiceOrder 21
PIN 224 192 RIGHT 8
PINATTR PinName FB4
PINATTR SpiceOrder 22
PIN -240 192 LEFT 8
PINATTR PinName EN4
PINATTR SpiceOrder 23
PIN -48 544 BOTTOM 8
PINATTR PinName PGND2
PINATTR SpiceOrder 24
PIN -240 464 LEFT 8
PINATTR PinName SYNC
PINATTR SpiceOrder 25
PIN -240 -560 LEFT 8
PINATTR PinName AVin
PINATTR SpiceOrder 26
PIN -240 -384 LEFT 8
PINATTR PinName EN1
PINATTR SpiceOrder 27
PIN 224 -384 RIGHT 8
PINATTR PinName FB1
PINATTR SpiceOrder 28
