Version 4
SymbolType BLOCK
RECTANGLE Normal 144 256 -144 -272
TEXT 0 0 Center 2 ADI
TEXT 0 56 Center 2 ADP5051_chan3_4
WINDOW 0 0 -56 Center 2
SYMATTR Prefix X
SYMATTR SpiceModel ADP505x_chan3_4.sub
SYMATTR Value ADP505x_chan3_4
SYMATTR Description Channel 3 and 4 Switcher model for the ADP5050, ADP5051, ADP5052, and ADP5053.
SYMATTR Value2 ADP505x_chan3_4
PIN -144 224 LEFT 8
PINATTR PinName Rt
PINATTR SpiceOrder 1
PIN -144 112 LEFT 8
PINATTR PinName Sync_Mode
PINATTR SpiceOrder 2
PIN 144 224 RIGHT 8
PINATTR PinName Vreg
PINATTR SpiceOrder 3
PIN -144 -112 LEFT 8
PINATTR PinName EN
PINATTR SpiceOrder 4
PIN -144 -224 LEFT 8
PINATTR PinName Vin
PINATTR SpiceOrder 5
PIN 144 -224 RIGHT 8
PINATTR PinName BST
PINATTR SpiceOrder 6
PIN 144 -112 RIGHT 8
PINATTR PinName SW
PINATTR SpiceOrder 7
PIN 144 0 RIGHT 8
PINATTR PinName FB
PINATTR SpiceOrder 9
PIN -144 0 LEFT 8
PINATTR PinName Comp
PINATTR SpiceOrder 10
PIN 144 112 RIGHT 8
PINATTR PinName PWRGD
PINATTR SpiceOrder 11
PIN 0 256 BOTTOM 8
PINATTR PinName PGND
PINATTR SpiceOrder 12
PIN -144 160 LEFT 8
PINATTR PinName SS34
PINATTR SpiceOrder 15
