Version 4
SymbolType BLOCK
RECTANGLE Normal 144 304 -144 -336
TEXT 0 -9 Center 2 ADI
TEXT 0 104 Center 2 ADP5052_chan1_2
WINDOW 0 -1 -220 Center 2
SYMATTR Prefix X
SYMATTR SpiceModel ADP505x_chan1_2.sub
SYMATTR Value ADP505x_chan1_2
SYMATTR Description Channel 1 and 2 Switcher model for the ADP5050, ADP5051, ADP5052, and ADP5053.
SYMATTR Value2 ADP505x_chan1_2
PIN -144 272 LEFT 8
PINATTR PinName Rt
PINATTR SpiceOrder 1
PIN -144 160 LEFT 8
PINATTR PinName Sync_Mode
PINATTR SpiceOrder 2
PIN 144 272 RIGHT 8
PINATTR PinName Vreg
PINATTR SpiceOrder 3
PIN -144 -176 LEFT 8
PINATTR PinName EN
PINATTR SpiceOrder 4
PIN -144 -288 LEFT 8
PINATTR PinName Vin
PINATTR SpiceOrder 5
PIN 144 -288 RIGHT 8
PINATTR PinName BST
PINATTR SpiceOrder 6
PIN 144 -176 RIGHT 8
PINATTR PinName SW
PINATTR SpiceOrder 7
PIN 144 -64 RIGHT 8
PINATTR PinName DL
PINATTR SpiceOrder 8
PIN 144 48 RIGHT 8
PINATTR PinName FB
PINATTR SpiceOrder 9
PIN -144 -64 LEFT 8
PINATTR PinName COMP
PINATTR SpiceOrder 10
PIN -144 48 LEFT 8
PINATTR PinName PWRGD
PINATTR SpiceOrder 11
PIN 0 304 BOTTOM 8
PINATTR PinName PGND
PINATTR SpiceOrder 12
PIN 144 160 RIGHT 8
PINATTR PinName Rlim
PINATTR SpiceOrder 13
PIN -144 224 LEFT 8
PINATTR PinName SS12
PINATTR SpiceOrder 15
