Version 4
SymbolType CELL
RECTANGLE Normal -144 -320 144 336
TEXT 0 9 Center 2 ADI
WINDOW 0 0 -104 Center 2
WINDOW 3 0 120 Center 2
SYMATTR Value ADP5073
SYMATTR Prefix X
SYMATTR SpiceModel ADP5073_4.sub
SYMATTR Value2 ADP5073_4 CL=1.375 CS=151.83m Ron=220m IQ=2.5m
SYMATTR Description 1.2A, DC to DC Inverting Regulator
PIN -144 288 LEFT 8
PINATTR PinName Sync/Freq
PINATTR SpiceOrder 1
PIN -144 -160 LEFT 8
PINATTR PinName EN
PINATTR SpiceOrder 2
PIN 144 64 RIGHT 8
PINATTR PinName Vref
PINATTR SpiceOrder 3
PIN -144 -272 LEFT 8
PINATTR PinName AVin
PINATTR SpiceOrder 4
PIN 144 -272 RIGHT 8
PINATTR PinName SW
PINATTR SpiceOrder 5
PIN 0 -320 TOP 8
PINATTR PinName PVin
PINATTR SpiceOrder 6
PIN -144 -48 LEFT 8
PINATTR PinName Comp
PINATTR SpiceOrder 7
PIN 144 -48 RIGHT 8
PINATTR PinName FB
PINATTR SpiceOrder 8
PIN -144 64 LEFT 8
PINATTR PinName Slew
PINATTR SpiceOrder 9
PIN 144 -160 RIGHT 8
PINATTR PinName GND
PINATTR SpiceOrder 10
PIN 144 176 RIGHT 8
PINATTR PinName Vreg
PINATTR SpiceOrder 11
PIN -144 176 LEFT 8
PINATTR PinName SS
PINATTR SpiceOrder 12
PIN 144 288 RIGHT 8
PINATTR PinName PWRGD
PINATTR SpiceOrder 13
