Version 4
SymbolType CELL
RECTANGLE Normal -144 -448 144 432
TEXT 1 -9 Center 2 ADI
WINDOW 0 0 -231 Center 2
WINDOW 3 0 215 Center 2
SYMATTR Value ADP5072
SYMATTR Prefix X
SYMATTR SpiceModel ADP5072.sub
SYMATTR Value2 ADP5072 CL1=1.1 CS1=151.83m Ron1=175m CL2=0.6 CS2=151.83m Ron2=350m SS=1
SYMATTR Description 1A/0.6A, DC to DC Switching Regulator with Independent Positive and Negative Outputs
PIN -144 160 LEFT 8
PINATTR PinName Sync
PINATTR SpiceOrder 1
PIN -144 -176 LEFT 8
PINATTR PinName EN1
PINATTR SpiceOrder 2
PIN 144 384 RIGHT 8
PINATTR PinName Comp2
PINATTR SpiceOrder 3
PIN -144 -288 LEFT 8
PINATTR PinName AVin
PINATTR SpiceOrder 4
PIN 144 -400 RIGHT 8
PINATTR PinName SW1
PINATTR SpiceOrder 5
PIN 144 -176 RIGHT 8
PINATTR PinName Comp1
PINATTR SpiceOrder 7
PIN 144 -288 RIGHT 8
PINATTR PinName FB1
PINATTR SpiceOrder 8
PIN 144 48 RIGHT 8
PINATTR PinName Slew
PINATTR SpiceOrder 9
PIN -144 384 LEFT 8
PINATTR PinName PGND
PINATTR SpiceOrder 10
PIN -144 48 LEFT 8
PINATTR PinName SS
PINATTR SpiceOrder 12
PIN 144 160 RIGHT 8
PINATTR PinName FB2
PINATTR SpiceOrder 13
PIN -144 272 LEFT 8
PINATTR PinName AGND
PINATTR SpiceOrder 14
PIN -144 -64 LEFT 8
PINATTR PinName EN2
PINATTR SpiceOrder 16
PIN -144 -400 LEFT 8
PINATTR PinName PVin
PINATTR SpiceOrder 17
PIN 144 272 RIGHT 8
PINATTR PinName Vref
PINATTR SpiceOrder 18
PIN 144 -64 RIGHT 8
PINATTR PinName SW2
PINATTR SpiceOrder 19
