Version 4
SymbolType CELL
RECTANGLE Normal -128 -144 128 160
TEXT 0 0 Center 2 ADI
WINDOW 0 0 -48 Center 2
WINDOW 3 0 48 Center 2
SYMATTR Value ADP7112-2.5
SYMATTR Prefix X
SYMATTR SpiceModel ADP7102.lib
SYMATTR Value2 ADP7118 Vref=2.5
SYMATTR Description 20V, 200mA, Low Noise, CMOS LDO, Fixed 2.5V Output
PIN -128 -96 LEFT 8
PINATTR PinName Vin
PINATTR SpiceOrder 1
PIN 128 96 RIGHT 8
PINATTR PinName Sense
PINATTR SpiceOrder 2
PIN -128 0 LEFT 8
PINATTR PinName EN
PINATTR SpiceOrder 3
PIN -128 96 LEFT 8
PINATTR PinName SS
PINATTR SpiceOrder 4
PIN 128 -96 RIGHT 8
PINATTR PinName Vout
PINATTR SpiceOrder 5
PIN 0 160 BOTTOM 8
PINATTR PinName GND
PINATTR SpiceOrder 6
