Version 4
SymbolType CELL
RECTANGLE Normal 160 208 -160 -176
TEXT 0 0 Center 2 ADI
WINDOW 3 0 96 Center 2
WINDOW 0 0 -96 Center 2
SYMATTR Value ADP7159-04
SYMATTR Prefix X
SYMATTR SpiceModel ADP7158_9.sub
SYMATTR Value2 ADP7158_9 Vreg=3.611 Vref=1.216
SYMATTR Description 2A, Ultralow Noise, High PSRR, RF Linear Regulator
PIN 160 -144 RIGHT 8
PINATTR PinName Vout
PINATTR SpiceOrder 1
PIN 160 -48 RIGHT 8
PINATTR PinName Vout_Sense
PINATTR SpiceOrder 3
PIN -160 48 LEFT 8
PINATTR PinName Byp
PINATTR SpiceOrder 4
PIN -160 -48 LEFT 8
PINATTR PinName EN
PINATTR SpiceOrder 5
PIN 160 144 RIGHT 8
PINATTR PinName Ref_Sense
PINATTR SpiceOrder 6
PIN 160 48 RIGHT 8
PINATTR PinName Ref
PINATTR SpiceOrder 7
PIN -160 144 LEFT 8
PINATTR PinName Vreg
PINATTR SpiceOrder 8
PIN -160 -144 LEFT 8
PINATTR PinName Vin
PINATTR SpiceOrder 9
PIN 0 208 BOTTOM 8
PINATTR PinName GND
PINATTR SpiceOrder 10
