Version 4
SymbolType CELL
RECTANGLE Normal -128 -144 128 160
TEXT 0 0 Center 2 ADI
WINDOW 0 0 -48 Center 2
WINDOW 3 0 48 Center 2
SYMATTR Value ADP7105
SYMATTR Prefix X
SYMATTR SpiceModel ADP7102.lib
SYMATTR Value2 ADP7105 Vref=1.22
SYMATTR Description 20V, 500mA, Low Noise, CMOS LDO with Soft Start, Adjustable Output
PIN -128 -96 LEFT 8
PINATTR PinName Vin
PINATTR SpiceOrder 1
PIN 128 96 RIGHT 8
PINATTR PinName ADJ
PINATTR SpiceOrder 2
PIN -128 0 LEFT 8
PINATTR PinName EN
PINATTR SpiceOrder 3
PIN -128 96 LEFT 8
PINATTR PinName SS
PINATTR SpiceOrder 4
PIN 128 0 RIGHT 8
PINATTR PinName Vout
PINATTR SpiceOrder 5
PIN 0 160 BOTTOM 8
PINATTR PinName GND
PINATTR SpiceOrder 6
PIN 128 -96 RIGHT 8
PINATTR PinName PG
PINATTR SpiceOrder 7
