Version 4
SymbolType CELL
RECTANGLE Normal -112 -112 112 112
TEXT 0 0 Center 2 LT
WINDOW 0 0 -32 Center 2
WINDOW 3 0 32 Center 2
SYMATTR Value LT3001
SYMATTR Prefix X
SYMATTR SpiceModel LT3001.sub
SYMATTR Value2 LT3001
SYMATTR Description 36V 4W No-Opto Isolated Flyback Converter
PIN -112 64 LEFT 8
PINATTR PinName EN/UVLO
PINATTR SpiceOrder 1
PIN 0 112 BOTTOM 8
PINATTR PinName GND
PINATTR SpiceOrder 2
PIN 112 64 RIGHT 8
PINATTR PinName RFB
PINATTR SpiceOrder 3
PIN 112 -64 RIGHT 8
PINATTR PinName SW
PINATTR SpiceOrder 4
PIN -112 -64 LEFT 8
PINATTR PinName Vin
PINATTR SpiceOrder 5
