Version 4
SymbolType BLOCK
RECTANGLE Normal 160 336 -160 -320
TEXT 0 9 Center 2 LT
WINDOW 0 0 -104 Center 2
WINDOW 3 0 120 Center 2
SYMATTR Prefix X
SYMATTR Value LT3070-1
SYMATTR ModelFile LT3070-1.sub
SYMATTR Description 5A, Low Noise, Programmable Output 85mV Dropout Linear Regulator
SYMATTR Value2 LT3070-1
PIN 0 336 BOTTOM 8
PINATTR PinName GND
PINATTR SpiceOrder 1
PIN -160 -48 LEFT 8
PINATTR PinName V00
PINATTR SpiceOrder 2
PIN -160 64 LEFT 8
PINATTR PinName V01
PINATTR SpiceOrder 3
PIN -160 176 LEFT 8
PINATTR PinName V02
PINATTR SpiceOrder 4
PIN -160 -272 LEFT 8
PINATTR PinName Bias
PINATTR SpiceOrder 5
PIN 160 288 RIGHT 8
PINATTR PinName Ref/BYP
PINATTR SpiceOrder 6
PIN 160 176 RIGHT 8
PINATTR PinName MargTol
PINATTR SpiceOrder 7
PIN 160 64 RIGHT 8
PINATTR PinName MargSel
PINATTR SpiceOrder 8
PIN 0 -320 TOP 8
PINATTR PinName IN
PINATTR SpiceOrder 9
PIN 160 -160 RIGHT 8
PINATTR PinName Sense
PINATTR SpiceOrder 10
PIN 160 -48 RIGHT 8
PINATTR PinName Out
PINATTR SpiceOrder 11
PIN -160 -160 LEFT 8
PINATTR PinName En
PINATTR SpiceOrder 12
PIN -160 288 LEFT 8
PINATTR PinName VIOC
PINATTR SpiceOrder 13
PIN 160 -272 RIGHT 8
PINATTR PinName PWRGD
PINATTR SpiceOrder 14
