Version 4
SymbolType CELL
RECTANGLE Normal -128 -192 128 224
TEXT 0 8 Center 2 LT
WINDOW 0 0 -104 Center 2
WINDOW 3 1 121 Center 2
SYMATTR Value LT3033
SYMATTR Prefix X
SYMATTR SpiceModel LT3033.sub
SYMATTR Value2 LT3033
SYMATTR Description 3A, 0.95V to 10V, Very Low Dropout Linear Regulator with Programmable Current Limit
PIN -128 -160 LEFT 8
PINATTR PinName IN
PINATTR SpiceOrder 1
PIN 128 -160 RIGHT 8
PINATTR PinName OUT
PINATTR SpiceOrder 3
PIN 0 224 BOTTOM 8
PINATTR PinName GND
PINATTR SpiceOrder 5
PIN -128 176 LEFT 8
PINATTR PinName ILIM
PINATTR SpiceOrder 7
PIN 128 176 RIGHT 8
PINATTR PinName IMON
PINATTR SpiceOrder 8
PIN 128 64 RIGHT 8
PINATTR PinName REF/BYP
PINATTR SpiceOrder 9
PIN 128 -48 RIGHT 8
PINATTR PinName ADJ
PINATTR SpiceOrder 10
PIN -128 64 LEFT 8
PINATTR PinName PWRGD
PINATTR SpiceOrder 11
PIN -128 -48 LEFT 8
PINATTR PinName _SHDN
PINATTR SpiceOrder 12
