Version 4
SymbolType CELL
RECTANGLE Normal -112 -192 112 192
TEXT 0 0 Center 2 LT
WINDOW 0 0 -96 Center 2
WINDOW 3 0 96 Center 2
SYMATTR Value LT3002
SYMATTR Prefix X
SYMATTR SpiceModel LT3002.sub
SYMATTR Value2 LT3002
SYMATTR Description 36V 10W No-Opto Isolated Flyback Converter
PIN -112 -48 LEFT 8
PINATTR PinName EN/UVLO
PINATTR SpiceOrder 1
PIN -112 48 LEFT 8
PINATTR PinName INTVcc
PINATTR SpiceOrder 2
PIN -112 -144 LEFT 8
PINATTR PinName Vin
PINATTR SpiceOrder 3
PIN -112 144 LEFT 8
PINATTR PinName GND
PINATTR SpiceOrder 4
PIN 112 -144 RIGHT 8
PINATTR PinName SW
PINATTR SpiceOrder 5
PIN 112 -48 RIGHT 8
PINATTR PinName RFB
PINATTR SpiceOrder 6
PIN 112 48 RIGHT 8
PINATTR PinName Rref
PINATTR SpiceOrder 7
PIN 112 144 RIGHT 8
PINATTR PinName Tc
PINATTR SpiceOrder 8
