Version 4
SymbolType CELL
RECTANGLE Normal -176 -416 176 416
TEXT 0 0 Center 2 LT
WINDOW 0 0 -64 Center 2
WINDOW 3 0 64 Center 2
SYMATTR Value LT3072
SYMATTR Prefix X
SYMATTR Description Dual, Low Noise, 2.5A Programmable Output, 80mV Low Dropout Linear Regulator
SYMATTR SpiceLine TA=25 Rth=42
SYMATTR ModelFile LT3072.sub
PIN 0 416 BOTTOM 8
PINATTR PinName GND
PINATTR SpiceOrder 1
PIN -176 -224 LEFT 8
PINATTR PinName VO1B0
PINATTR SpiceOrder 2
PIN -176 -160 LEFT 8
PINATTR PinName VO1B1
PINATTR SpiceOrder 3
PIN -176 -96 LEFT 8
PINATTR PinName VO1B2
PINATTR SpiceOrder 4
PIN 64 -416 TOP 8
PINATTR PinName Bias
PINATTR SpiceOrder 5
PIN 176 -32 RIGHT 8
PINATTR PinName Ref/BYP1
PINATTR SpiceOrder 6
PIN 176 -96 RIGHT 8
PINATTR PinName Imon/lim1
PINATTR SpiceOrder 7
PIN 176 -160 RIGHT 8
PINATTR PinName Marga1
PINATTR SpiceOrder 8
PIN -176 -352 LEFT 8
PINATTR PinName IN1
PINATTR SpiceOrder 9
PIN 176 -288 RIGHT 8
PINATTR PinName Sense1
PINATTR SpiceOrder 10
PIN 176 -224 RIGHT 8
PINATTR PinName OUT1
PINATTR SpiceOrder 11
PIN -176 -288 LEFT 8
PINATTR PinName EN1
PINATTR SpiceOrder 12
PIN -176 -32 LEFT 8
PINATTR PinName VIOC1
PINATTR SpiceOrder 13
PIN 176 -352 RIGHT 8
PINATTR PinName PWRGD1
PINATTR SpiceOrder 14
PIN -64 -416 TOP 8
PINATTR PinName Temp
PINATTR SpiceOrder 15
PIN -176 176 LEFT 8
PINATTR PinName VO2B0
PINATTR SpiceOrder 16
PIN -176 240 LEFT 8
PINATTR PinName VO2B1
PINATTR SpiceOrder 17
PIN -176 304 LEFT 8
PINATTR PinName VO2B2
PINATTR SpiceOrder 18
PIN -176 368 LEFT 8
PINATTR PinName VIOC2
PINATTR SpiceOrder 19
PIN 176 368 RIGHT 8
PINATTR PinName Ref/BYP2
PINATTR SpiceOrder 20
PIN 176 240 RIGHT 8
PINATTR PinName Marga2
PINATTR SpiceOrder 21
PIN -176 48 LEFT 8
PINATTR PinName IN2
PINATTR SpiceOrder 22
PIN 176 112 RIGHT 8
PINATTR PinName Sense2
PINATTR SpiceOrder 23
PIN 176 176 RIGHT 8
PINATTR PinName OUT2
PINATTR SpiceOrder 24
PIN -176 112 LEFT 8
PINATTR PinName EN2
PINATTR SpiceOrder 25
PIN 176 304 RIGHT 8
PINATTR PinName Imon/lim2
PINATTR SpiceOrder 26
PIN 176 48 RIGHT 8
PINATTR PinName PWRGD2
PINATTR SpiceOrder 27
