Version 4
SymbolType CELL
RECTANGLE Normal -128 -112 128 112
TEXT 0 0 Center 2 LT
WINDOW 0 0 -48 Center 2
WINDOW 3 0 48 Center 2
SYMATTR Value LT3089
SYMATTR Prefix X
SYMATTR SpiceModel LT3089.sub
SYMATTR Value2 LT3089
SYMATTR Description 800mA Single Resistor Rugged Linear Regulator with Monitors
PIN 128 48 RIGHT 8
PINATTR PinName Ilim
PINATTR SpiceOrder 1
PIN 0 112 BOTTOM 8
PINATTR PinName SET
PINATTR SpiceOrder 2
PIN -128 48 LEFT 8
PINATTR PinName Imon
PINATTR SpiceOrder 3
PIN 128 -48 RIGHT 8
PINATTR PinName OUT
PINATTR SpiceOrder 4
PIN -128 -48 LEFT 8
PINATTR PinName Temp
PINATTR SpiceOrder 5
PIN 0 -112 TOP 8
PINATTR PinName IN
PINATTR SpiceOrder 6
