Version 4
SymbolType CELL
RECTANGLE Normal 160 224 -160 -224
TEXT 0 1 Center 2 LT
WINDOW 3 1 71 Center 2
WINDOW 0 2 -64 Center 2
SYMATTR Value LT3154-1
SYMATTR Prefix X
SYMATTR SpiceModel LT3154-1.sub
SYMATTR Value2 LT3154-1
SYMATTR Description 5A Low Noise, High Performance Buck-Boost DC/DC Converter, Selectable output 3.3V or 5V
PIN 64 224 BOTTOM 8
PINATTR PinName PGND
PINATTR SpiceOrder 1
PIN 64 -224 TOP 8
PINATTR PinName SW2
PINATTR SpiceOrder 2
PIN 160 -80 RIGHT 8
PINATTR PinName PVout
PINATTR SpiceOrder 3
PIN -160 0 LEFT 8
PINATTR PinName EN
PINATTR SpiceOrder 4
PIN -160 80 LEFT 8
PINATTR PinName SS
PINATTR SpiceOrder 5
PIN 160 -160 RIGHT 8
PINATTR PinName _PGD
PINATTR SpiceOrder 6
PIN 160 80 RIGHT 8
PINATTR PinName Vsel
PINATTR SpiceOrder 7
PIN -64 224 BOTTOM 8
PINATTR PinName GND
PINATTR SpiceOrder 8
PIN 160 160 RIGHT 8
PINATTR PinName Rt
PINATTR SpiceOrder 9
PIN -160 -80 LEFT 8
PINATTR PinName Vin
PINATTR SpiceOrder 10
PIN -160 160 LEFT 8
PINATTR PinName Mode/Sync
PINATTR SpiceOrder 11
PIN 160 0 RIGHT 8
PINATTR PinName Vout
PINATTR SpiceOrder 12
PIN -64 -224 TOP 8
PINATTR PinName SW1
PINATTR SpiceOrder 13
PIN -160 -160 LEFT 8
PINATTR PinName PVin
PINATTR SpiceOrder 14
