Version 4
SymbolType CELL
RECTANGLE Normal 144 288 -144 -304
TEXT 0 0 Center 2 LT
TEXT 1 65 Center 2 LT3964
WINDOW 0 0 -64 Center 2
WINDOW 3 -1 -217 Center 2
SYMATTR Value ADIM=255
SYMATTR SpiceModel LT3964
SYMATTR Prefix X
SYMATTR Description Dual (single model) 36V, Synchronous 1.6A Buck LED Driver with I2C
SYMATTR ModelFile LT3964.sub
PIN 144 -96 RIGHT 8
PINATTR PinName SW1
PINATTR SpiceOrder 1
PIN 144 -176 RIGHT 8
PINATTR PinName BST1
PINATTR SpiceOrder 2
PIN -144 32 LEFT 8
PINATTR PinName IntVcc
PINATTR SpiceOrder 3
PIN 0 -304 TOP 8
PINATTR PinName Vin1
PINATTR SpiceOrder 4
PIN -144 -256 LEFT 8
PINATTR PinName EN/UV
PINATTR SpiceOrder 5
PIN -144 128 LEFT 8
PINATTR PinName CTRL1
PINATTR SpiceOrder 8
PIN 144 -16 RIGHT 8
PINATTR PinName ISP1
PINATTR SpiceOrder 9
PIN 144 144 RIGHT 8
PINATTR PinName ISN1
PINATTR SpiceOrder 10
PIN 144 64 RIGHT 8
PINATTR PinName FB1
PINATTR SpiceOrder 12
PIN -144 -64 LEFT 8
PINATTR PinName _Alert
PINATTR SpiceOrder 15
PIN 144 -256 RIGHT 8
PINATTR PinName Rt
PINATTR SpiceOrder 16
PIN -144 224 LEFT 8
PINATTR PinName Sync/CLK
PINATTR SpiceOrder 17
PIN -144 -160 LEFT 8
PINATTR PinName PWM1
PINATTR SpiceOrder 19
PIN 144 224 RIGHT 8
PINATTR PinName PWMTG1
PINATTR SpiceOrder 20
PIN 0 288 BOTTOM 8
PINATTR PinName GND
PINATTR SpiceOrder 22
