Version 4
SymbolType CELL
RECTANGLE Normal -208 -416 208 416
TEXT 0 0 Center 2 LT
WINDOW 0 0 -192 Center 2
WINDOW 3 0 192 Center 2
SYMATTR Value LT3952A
SYMATTR Prefix X
SYMATTR SpiceModel LT3952A.sub
SYMATTR Value2 LT3952A
SYMATTR Description 60V LED Driver with 4A Switch Current
PIN 208 -48 RIGHT 8
PINATTR PinName Isp
PINATTR SpiceOrder 1
PIN 208 48 RIGHT 8
PINATTR PinName Isn
PINATTR SpiceOrder 2
PIN 208 144 RIGHT 8
PINATTR PinName Tg
PINATTR SpiceOrder 3
PIN 208 -240 RIGHT 8
PINATTR PinName GND
PINATTR SpiceOrder 4
PIN -144 416 BOTTOM 8
PINATTR PinName Ismon
PINATTR SpiceOrder 5
PIN 208 -336 RIGHT 8
PINATTR PinName SW
PINATTR SpiceOrder 6
PIN 208 -144 RIGHT 8
PINATTR PinName FB
PINATTR SpiceOrder 7
PIN -48 416 BOTTOM 8
PINATTR PinName Vc
PINATTR SpiceOrder 8
PIN -208 -144 LEFT 8
PINATTR PinName CTRL
PINATTR SpiceOrder 9
PIN -208 -240 LEFT 8
PINATTR PinName Vref
PINATTR SpiceOrder 10
PIN 144 416 BOTTOM 8
PINATTR PinName SS
PINATTR SpiceOrder 11
PIN 48 416 BOTTOM 8
PINATTR PinName Rt
PINATTR SpiceOrder 12
PIN -208 -48 LEFT 8
PINATTR PinName DIM
PINATTR SpiceOrder 13
PIN -208 48 LEFT 8
PINATTR PinName PWM
PINATTR SpiceOrder 14
PIN -208 240 LEFT 8
PINATTR PinName _ShortLED
PINATTR SpiceOrder 15
PIN -208 336 LEFT 8
PINATTR PinName _OpenLED
PINATTR SpiceOrder 16
PIN 208 240 RIGHT 8
PINATTR PinName Sync/Sprd
PINATTR SpiceOrder 17
PIN 208 336 RIGHT 8
PINATTR PinName IntVcc
PINATTR SpiceOrder 20
PIN -48 -416 TOP 8
PINATTR PinName Vin
PINATTR SpiceOrder 23
PIN -144 -416 TOP 8
PINATTR PinName EN/UVLO
PINATTR SpiceOrder 24
PIN -208 -336 LEFT 8
PINATTR PinName OVLO
PINATTR SpiceOrder 25
PIN 144 -416 TOP 8
PINATTR PinName IVinN
PINATTR SpiceOrder 26
PIN 48 -416 TOP 8
PINATTR PinName IVinP
PINATTR SpiceOrder 27
PIN -208 144 LEFT 8
PINATTR PinName IVinComp
PINATTR SpiceOrder 28
