Version 4
SymbolType BLOCK
RECTANGLE Normal 289 529 -304 -496
TEXT 0 0 Center 2 LT
WINDOW 3 0 240 Center 2
WINDOW 0 0 -304 Center 2
SYMATTR Value LT3942
SYMATTR Prefix X
SYMATTR SpiceModel LT3942.sub
SYMATTR Value2 LT3942
SYMATTR Description 36V 2A Synchronous Buck-Boost Controller and LED Driver
PIN -304 -416 LEFT 8
PINATTR PinName PVin
PINATTR SpiceOrder 1
PIN -304 -336 LEFT 8
PINATTR PinName Vin
PINATTR SpiceOrder 3
PIN -304 -32 LEFT 8
PINATTR PinName INTVcc
PINATTR SpiceOrder 4
PIN -304 -256 LEFT 8
PINATTR PinName EN/UVLO
PINATTR SpiceOrder 5
PIN -304 -144 LEFT 8
PINATTR PinName OVLO
PINATTR SpiceOrder 6
PIN -304 368 LEFT 8
PINATTR PinName RP
PINATTR SpiceOrder 7
PIN -304 288 LEFT 8
PINATTR PinName PWM
PINATTR SpiceOrder 8
PIN -304 128 LEFT 8
PINATTR PinName Vref
PINATTR SpiceOrder 9
PIN -304 208 LEFT 8
PINATTR PinName CTRL
PINATTR SpiceOrder 10
PIN 288 -144 RIGHT 8
PINATTR PinName ISP
PINATTR SpiceOrder 11
PIN 288 -64 RIGHT 8
PINATTR PinName ISN
PINATTR SpiceOrder 12
PIN 288 128 RIGHT 8
PINATTR PinName ISMON
PINATTR SpiceOrder 13
PIN -304 48 LEFT 8
PINATTR PinName _FAULT
PINATTR SpiceOrder 14
PIN 288 288 RIGHT 8
PINATTR PinName SS
PINATTR SpiceOrder 15
PIN 288 -304 RIGHT 8
PINATTR PinName FB
PINATTR SpiceOrder 16
PIN 288 208 RIGHT 8
PINATTR PinName Vc
PINATTR SpiceOrder 17
PIN 288 368 RIGHT 8
PINATTR PinName RT
PINATTR SpiceOrder 18
PIN 288 448 RIGHT 8
PINATTR PinName SYNC/SPRD
PINATTR SpiceOrder 19
PIN 288 48 RIGHT 8
PINATTR PinName PWMTG
PINATTR SpiceOrder 20
PIN 288 -416 RIGHT 8
PINATTR PinName PVout
PINATTR SpiceOrder 21
PIN 64 -496 TOP 8
PINATTR PinName SW2
PINATTR SpiceOrder 23
PIN 192 -496 TOP 8
PINATTR PinName BST2
PINATTR SpiceOrder 25
PIN -208 -496 TOP 8
PINATTR PinName BST1
PINATTR SpiceOrder 26
PIN -80 -496 TOP 8
PINATTR PinName SW1
PINATTR SpiceOrder 27
PIN -304 448 LEFT 8
PINATTR PinName GND
PINATTR SpiceOrder 29
