Version 4
SymbolType CELL
RECTANGLE Normal -192 -384 192 336
TEXT 0 -22 Center 2 LT
WINDOW 0 0 -184 Center 2
WINDOW 3 0 135 Center 2
SYMATTR Value LT7101
SYMATTR Prefix X
SYMATTR Description 105V, 1A Low EMI Synchronous Step-Down Regulator with Fast Current Programming
SYMATTR SpiceModel LT7101.sub
SYMATTR Value2 LT7101
PIN -192 -224 LEFT 8
PINATTR PinName Run
PINATTR SpiceOrder 3
PIN -64 336 BOTTOM 8
PINATTR PinName SGND
PINATTR SpiceOrder 6
PIN -192 -144 LEFT 8
PINATTR PinName OVLO
PINATTR SpiceOrder 7
PIN -192 16 LEFT 8
PINATTR PinName Rind
PINATTR SpiceOrder 8
PIN 192 16 RIGHT 8
PINATTR PinName Ith
PINATTR SpiceOrder 9
PIN 192 -64 RIGHT 8
PINATTR PinName Vfb
PINATTR SpiceOrder 10
PIN -192 -64 LEFT 8
PINATTR PinName Freq
PINATTR SpiceOrder 11
PIN -192 256 LEFT 8
PINATTR PinName PLLin/Mode
PINATTR SpiceOrder 12
PIN -192 176 LEFT 8
PINATTR PinName CLKOut
PINATTR SpiceOrder 13
PIN 128 -384 TOP 8
PINATTR PinName Pgood
PINATTR SpiceOrder 14
PIN -192 96 LEFT 8
PINATTR PinName SS
PINATTR SpiceOrder 15
PIN -128 -384 TOP 8
PINATTR PinName Ictrl
PINATTR SpiceOrder 16
PIN 0 -384 TOP 8
PINATTR PinName Imon
PINATTR SpiceOrder 17
PIN 192 176 RIGHT 8
PINATTR PinName VPRG1
PINATTR SpiceOrder 18
PIN 192 256 RIGHT 8
PINATTR PinName VPRG2
PINATTR SpiceOrder 19
PIN 192 -144 RIGHT 8
PINATTR PinName ExtVcc
PINATTR SpiceOrder 20
PIN 192 96 RIGHT 8
PINATTR PinName IntVcc
PINATTR SpiceOrder 21
PIN 192 -224 RIGHT 8
PINATTR PinName SW
PINATTR SpiceOrder 24
PIN 192 -304 RIGHT 8
PINATTR PinName Boost
PINATTR SpiceOrder 27
PIN -192 -304 LEFT 8
PINATTR PinName Vin
PINATTR SpiceOrder 30
PIN 64 336 BOTTOM 8
PINATTR PinName PGND
PINATTR SpiceOrder 35
