Version 4
SymbolType CELL
RECTANGLE Normal 735 -336 -737 368
TEXT 0 2 Center 2 LT
WINDOW 0 2 -47 Center 2
WINDOW 3 0 45 Center 2
SYMATTR Value LT8228
SYMATTR Prefix X
SYMATTR SpiceModel LT8228.sub
SYMATTR Value2 LT8228
SYMATTR Description Bidirectional Synchronous 100V Buck/Boost Controller with Reverse Supply, Reverse Current and Fault Protection\n\nNote: REPORT pin is not modeled.
PIN -384 -336 TOP 8
PINATTR PinName SNS1P
PINATTR SpiceOrder 1
PIN -288 -336 TOP 8
PINATTR PinName SNS1N
PINATTR SpiceOrder 2
PIN -736 0 LEFT 8
PINATTR PinName UV1
PINATTR SpiceOrder 3
PIN -736 96 LEFT 8
PINATTR PinName FB1
PINATTR SpiceOrder 4
PIN -240 368 BOTTOM 8
PINATTR PinName IMON1
PINATTR SpiceOrder 5
PIN -576 368 BOTTOM 8
PINATTR PinName ISET1N
PINATTR SpiceOrder 6
PIN -432 368 BOTTOM 8
PINATTR PinName ISET2N
PINATTR SpiceOrder 7
PIN -336 368 BOTTOM 8
PINATTR PinName VC1
PINATTR SpiceOrder 8
PIN 48 368 BOTTOM 8
PINATTR PinName SS
PINATTR SpiceOrder 9
PIN -48 368 BOTTOM 8
PINATTR PinName VC2
PINATTR SpiceOrder 10
PIN 400 368 BOTTOM 8
PINATTR PinName ISET1P
PINATTR SpiceOrder 11
PIN 576 368 BOTTOM 8
PINATTR PinName ISET2P
PINATTR SpiceOrder 12
PIN -144 368 BOTTOM 8
PINATTR PinName IMON2
PINATTR SpiceOrder 13
PIN 576 -336 TOP 8
PINATTR PinName FB2
PINATTR SpiceOrder 14
PIN 736 -96 RIGHT 8
PINATTR PinName UV2
PINATTR SpiceOrder 15
PIN 240 368 BOTTOM 8
PINATTR PinName RT
PINATTR SpiceOrder 16
PIN -736 208 LEFT 8
PINATTR PinName ISHARE
PINATTR SpiceOrder 17
PIN 384 -336 TOP 8
PINATTR PinName SNS2P
PINATTR SpiceOrder 18
PIN 480 -336 TOP 8
PINATTR PinName SNS2N
PINATTR SpiceOrder 19
PIN 736 208 RIGHT 8
PINATTR PinName IGND
PINATTR SpiceOrder 20
PIN 672 368 BOTTOM 8
PINATTR PinName INTVcc
PINATTR SpiceOrder 21
PIN 736 0 RIGHT 8
PINATTR PinName DRXN
PINATTR SpiceOrder 22
PIN -672 368 BOTTOM 8
PINATTR PinName SYNC
PINATTR SpiceOrder 23
PIN 736 96 RIGHT 8
PINATTR PinName _FAULT
PINATTR SpiceOrder 24
PIN 192 -336 TOP 8
PINATTR PinName GND
PINATTR SpiceOrder 25
PIN 144 368 BOTTOM 8
PINATTR PinName TMR
PINATTR SpiceOrder 26
PIN 288 -336 TOP 8
PINATTR PinName BG
PINATTR SpiceOrder 27
PIN 96 -336 TOP 8
PINATTR PinName Drvcc
PINATTR SpiceOrder 28
PIN -736 -192 LEFT 8
PINATTR PinName BIAS
PINATTR SpiceOrder 29
PIN -96 -336 TOP 8
PINATTR PinName SW
PINATTR SpiceOrder 30
PIN -192 -336 TOP 8
PINATTR PinName TG
PINATTR SpiceOrder 31
PIN 0 -336 TOP 8
PINATTR PinName BST
PINATTR SpiceOrder 32
PIN -736 -96 LEFT 8
PINATTR PinName ENABLE
PINATTR SpiceOrder 33
PIN 736 -192 RIGHT 8
PINATTR PinName DS2
PINATTR SpiceOrder 34
PIN 672 -336 TOP 8
PINATTR PinName DG2
PINATTR SpiceOrder 35
PIN -480 -336 TOP 8
PINATTR PinName V1D
PINATTR SpiceOrder 36
PIN -672 -336 TOP 8
PINATTR PinName DS1
PINATTR SpiceOrder 37
PIN -576 -336 TOP 8
PINATTR PinName DG1
PINATTR SpiceOrder 38
