Version 4
SymbolType CELL
RECTANGLE Normal 160 1008 -160 -1008
TEXT 0 0 Center 2 LT
WINDOW 0 0 -512 Center 2
WINDOW 3 0 512 Center 2
SYMATTR Value LT8210
SYMATTR Value2 LT8210
SYMATTR Prefix X
SYMATTR SpiceModel LT8210.sub
SYMATTR Description 100V Vin and Vout Synchronous 4-switch Buck-Boost DC/DC Controller with Pass Through.
PIN -160 -960 LEFT 8
PINATTR PinName En UVLO
PINATTR SpiceOrder 1
PIN -160 -576 LEFT 8
PINATTR PinName Mode2
PINATTR SpiceOrder 2
PIN -160 -704 LEFT 8
PINATTR PinName Mode1
PINATTR SpiceOrder 3
PIN -160 -832 LEFT 8
PINATTR PinName Sync SPRD
PINATTR SpiceOrder 4
PIN -160 -320 LEFT 8
PINATTR PinName PWGD
PINATTR SpiceOrder 5
PIN -160 -192 LEFT 8
PINATTR PinName Rt
PINATTR SpiceOrder 6
PIN 0 1008 BOTTOM 8
PINATTR PinName Gnd
PINATTR SpiceOrder 7
PIN -160 -448 LEFT 8
PINATTR PinName Vdd
PINATTR SpiceOrder 8
PIN -160 -64 LEFT 8
PINATTR PinName SS
PINATTR SpiceOrder 9
PIN -160 64 LEFT 8
PINATTR PinName Imon
PINATTR SpiceOrder 10
PIN -160 192 LEFT 8
PINATTR PinName Vc1
PINATTR SpiceOrder 11
PIN -160 320 LEFT 8
PINATTR PinName Vc2
PINATTR SpiceOrder 12
PIN -160 448 LEFT 8
PINATTR PinName Fb2
PINATTR SpiceOrder 13
PIN -160 576 LEFT 8
PINATTR PinName Fb1
PINATTR SpiceOrder 14
PIN -160 704 LEFT 8
PINATTR PinName Vout
PINATTR SpiceOrder 16
PIN 160 960 RIGHT 8
PINATTR PinName SNSN2
PINATTR SpiceOrder 18
PIN 160 832 RIGHT 8
PINATTR PinName SNSP2
PINATTR SpiceOrder 19
PIN 160 704 RIGHT 8
PINATTR PinName TG2
PINATTR SpiceOrder 20
PIN 160 576 RIGHT 8
PINATTR PinName SW2
PINATTR SpiceOrder 21
PIN 160 448 RIGHT 8
PINATTR PinName Bst2
PINATTR SpiceOrder 22
PIN 160 320 RIGHT 8
PINATTR PinName BG2
PINATTR SpiceOrder 24
PIN 160 192 RIGHT 8
PINATTR PinName PGND
PINATTR SpiceOrder 25
PIN 160 -192 RIGHT 8
PINATTR PinName Bg1
PINATTR SpiceOrder 26
PIN -160 960 LEFT 8
PINATTR PinName GateVcc
PINATTR SpiceOrder 27
PIN -160 832 LEFT 8
PINATTR PinName ExtVcc
PINATTR SpiceOrder 28
PIN 160 -448 RIGHT 8
PINATTR PinName Bst1
PINATTR SpiceOrder 30
PIN 160 -320 RIGHT 8
PINATTR PinName SW1
PINATTR SpiceOrder 31
PIN 160 -576 RIGHT 8
PINATTR PinName TG1
PINATTR SpiceOrder 32
PIN 160 64 RIGHT 8
PINATTR PinName SNSN1
PINATTR SpiceOrder 33
PIN 160 -64 RIGHT 8
PINATTR PinName SNSP1
PINATTR SpiceOrder 34
PIN 160 -704 RIGHT 8
PINATTR PinName VinP
PINATTR SpiceOrder 36
PIN 160 -832 RIGHT 8
PINATTR PinName DG
PINATTR SpiceOrder 37
PIN 160 -960 RIGHT 8
PINATTR PinName Vin
PINATTR SpiceOrder 38
