Version 4
SymbolType CELL
RECTANGLE Normal -208 -144 208 144
TEXT 0 0 Center 2 LT
WINDOW 0 0 -48 Center 2
WINDOW 3 0 48 Center 2
SYMATTR Value LT8337
SYMATTR Value2 LT8337
SYMATTR Prefix X
SYMATTR SpiceModel LT8337.sub
SYMATTR Description 28V, 5A Low Iq Synchronous Step-Up Silent Switcher
PIN -208 64 LEFT 8
PINATTR PinName Sync/Mode
PINATTR SpiceOrder 1
PIN 0 144 BOTTOM 8
PINATTR PinName Rt
PINATTR SpiceOrder 2
PIN 128 144 BOTTOM 8
PINATTR PinName GND
PINATTR SpiceOrder 3
PIN 208 64 RIGHT 8
PINATTR PinName FB
PINATTR SpiceOrder 4
PIN 208 -64 RIGHT 8
PINATTR PinName Vout
PINATTR SpiceOrder 5
PIN 0 -144 TOP 4
PINATTR PinName SW
PINATTR SpiceOrder 6
PIN 144 -144 TOP 4
PINATTR PinName BST
PINATTR SpiceOrder 7
PIN -128 144 BOTTOM 8
PINATTR PinName INTVcc
PINATTR SpiceOrder 8
PIN -144 -144 TOP 4
PINATTR PinName Vin
PINATTR SpiceOrder 9
PIN -208 -64 LEFT 8
PINATTR PinName EN/UVLO
PINATTR SpiceOrder 10
PIN -208 0 LEFT 8
PINATTR PinName PG
PINATTR SpiceOrder 11
