Version 4
SymbolType BLOCK
RECTANGLE Normal 208 304 -208 -288
TEXT 0 0 Center 2 LT
WINDOW 3 1 129 Center 2
WINDOW 0 -1 -127 Center 2
SYMATTR Value LT8357
SYMATTR Prefix X
SYMATTR SpiceModel LT8357.sub
SYMATTR Value2 LT8357
SYMATTR Description 60V 2MHz Low-Iq Boost, SEPIC and Flyback Controller
PIN -208 192 LEFT 8
PINATTR PinName VC
PINATTR SpiceOrder 1
PIN 208 80 RIGHT 8
PINATTR PinName FB
PINATTR SpiceOrder 2
PIN -208 80 LEFT 8
PINATTR PinName PGOOD
PINATTR SpiceOrder 3
PIN -128 304 BOTTOM 8
PINATTR PinName SS
PINATTR SpiceOrder 4
PIN 0 304 BOTTOM 8
PINATTR PinName RT
PINATTR SpiceOrder 5
PIN -208 -32 LEFT 8
PINATTR PinName SYNC/MODE
PINATTR SpiceOrder 6
PIN 208 -32 RIGHT 8
PINATTR PinName SENSE
PINATTR SpiceOrder 7
PIN 208 -112 RIGHT 8
PINATTR PinName GATEN
PINATTR SpiceOrder 8
PIN 208 -176 RIGHT 8
PINATTR PinName GATEP
PINATTR SpiceOrder 9
PIN 128 304 BOTTOM 8
PINATTR PinName INTVCC
PINATTR SpiceOrder 10
PIN -208 -176 LEFT 8
PINATTR PinName EN/UVLO
PINATTR SpiceOrder 11
PIN 0 -288 TOP 8
PINATTR PinName VIN
PINATTR SpiceOrder 12
PIN 208 192 RIGHT 8
PINATTR PinName GND
PINATTR SpiceOrder 13
