Version 4
SymbolType CELL
RECTANGLE Normal -160 -272 159 272
TEXT 0 0 Center 2 LT
WINDOW 0 0 -96 Center 2
WINDOW 3 0 96 Center 2
SYMATTR Value LT8316
SYMATTR Prefix X
SYMATTR SpiceModel LT8316.sub
SYMATTR Value2 LT8316
SYMATTR Description 600Vin µPower No-Opto Isolated Flyback Controller
PIN -64 -272 TOP 8
PINATTR PinName Vin
PINATTR SpiceOrder 1
PIN -160 -96 LEFT 8
PINATTR PinName IntVcc
PINATTR SpiceOrder 8
PIN 64 -272 TOP 8
PINATTR PinName Bias
PINATTR SpiceOrder 9
PIN 160 -192 RIGHT 8
PINATTR PinName DCM
PINATTR SpiceOrder 10
PIN 160 0 RIGHT 8
PINATTR PinName TC
PINATTR SpiceOrder 11
PIN 160 -96 RIGHT 8
PINATTR PinName FB
PINATTR SpiceOrder 12
PIN -160 192 LEFT 8
PINATTR PinName Vc
PINATTR SpiceOrder 13
PIN -64 272 BOTTOM 8
PINATTR PinName Ireg/SS
PINATTR SpiceOrder 14
PIN 64 272 BOTTOM 8
PINATTR PinName GND
PINATTR SpiceOrder 15
PIN -160 0 LEFT 8
PINATTR PinName Smode
PINATTR SpiceOrder 16
PIN -160 -192 LEFT 8
PINATTR PinName EN/UVLO
PINATTR SpiceOrder 17
PIN 160 192 RIGHT 8
PINATTR PinName Sense
PINATTR SpiceOrder 18
PIN 160 96 RIGHT 8
PINATTR PinName Gate
PINATTR SpiceOrder 19
