Version 4
SymbolType CELL
RECTANGLE Normal -144 -432 144 656
TEXT 0 112 Center 2 LT
WINDOW 0 0 -176 Center 2
WINDOW 3 1 400 Center 2
SYMATTR Value LT8652S
SYMATTR Prefix X
SYMATTR SpiceModel LT8652S.sub
SYMATTR Value2 LT8652S
SYMATTR Description Dual Channel 8.5A, 18V, Synchronous Step-Down Silent Switcher with 16µA Quiescent Current
PIN 144 592 RIGHT 8
PINATTR PinName Imon2
PINATTR SpiceOrder 1
PIN 144 208 RIGHT 8
PINATTR PinName SS2
PINATTR SpiceOrder 2
PIN -144 496 LEFT 8
PINATTR PinName Rt
PINATTR SpiceOrder 3
PIN 64 656 BOTTOM 8
PINATTR PinName GND
PINATTR SpiceOrder 4
PIN -144 -368 LEFT 8
PINATTR PinName Vin1
PINATTR SpiceOrder 5
PIN 144 -368 RIGHT 8
PINATTR PinName Vin2
PINATTR SpiceOrder 9
PIN 0 -432 TOP 8
PINATTR PinName EN/UV
PINATTR SpiceOrder 13
PIN 144 400 RIGHT 8
PINATTR PinName PG2
PINATTR SpiceOrder 15
PIN -144 400 LEFT 8
PINATTR PinName PG1
PINATTR SpiceOrder 16
PIN -144 304 LEFT 8
PINATTR PinName SYNC
PINATTR SpiceOrder 17
PIN -64 656 BOTTOM 8
PINATTR PinName CLKout
PINATTR SpiceOrder 18
PIN 144 -272 RIGHT 8
PINATTR PinName Boost2
PINATTR SpiceOrder 19
PIN 144 -176 RIGHT 8
PINATTR PinName SW2
PINATTR SpiceOrder 20
PIN -144 -176 LEFT 8
PINATTR PinName SW1
PINATTR SpiceOrder 23
PIN -144 -272 LEFT 8
PINATTR PinName Boost1
PINATTR SpiceOrder 26
PIN 144 496 RIGHT 8
PINATTR PinName Bias
PINATTR SpiceOrder 27
PIN 144 304 RIGHT 8
PINATTR PinName Vcc
PINATTR SpiceOrder 28
PIN -144 208 LEFT 8
PINATTR PinName SS1
PINATTR SpiceOrder 29
PIN -144 592 LEFT 8
PINATTR PinName Imon1
PINATTR SpiceOrder 30
PIN -144 112 LEFT 8
PINATTR PinName Vc1
PINATTR SpiceOrder 31
PIN -144 -80 LEFT 8
PINATTR PinName FB1
PINATTR SpiceOrder 32
PIN -144 16 LEFT 8
PINATTR PinName SnsGnd1
PINATTR SpiceOrder 33
PIN 144 16 RIGHT 8
PINATTR PinName SnsGnd2
PINATTR SpiceOrder 34
PIN 144 -80 RIGHT 8
PINATTR PinName FB2
PINATTR SpiceOrder 35
PIN 144 112 RIGHT 8
PINATTR PinName Vc2
PINATTR SpiceOrder 36
