Version 4
SymbolType CELL
RECTANGLE Normal -144 -384 144 384
TEXT 0 0 Center 2 LT
WINDOW 0 0 -192 Center 2
WINDOW 3 0 192 Center 2
SYMATTR Value LT8653S
SYMATTR Prefix X
SYMATTR SpiceModel LT8653S.sub
SYMATTR Value2 LT8653S
SYMATTR Description Dual Channel 2A, 42V, Synchronous Step-Down Silent Switcher with 6.2µA Quiescent Current
PIN -64 384 BOTTOM 8
PINATTR PinName D0
PINATTR SpiceOrder 19
PIN 64 384 BOTTOM 8
PINATTR PinName D1
PINATTR SpiceOrder 20
PIN 144 144 RIGHT 8
PINATTR PinName PG2
PINATTR SpiceOrder 3
PIN -144 144 LEFT 8
PINATTR PinName PG1
PINATTR SpiceOrder 4
PIN -144 48 LEFT 8
PINATTR PinName SYNC
PINATTR SpiceOrder 5
PIN -144 336 LEFT 8
PINATTR PinName CLKout
PINATTR SpiceOrder 6
PIN -144 -336 LEFT 8
PINATTR PinName SW1
PINATTR SpiceOrder 7
PIN 144 -336 RIGHT 8
PINATTR PinName SW2
PINATTR SpiceOrder 8
PIN 144 48 RIGHT 8
PINATTR PinName Vcc
PINATTR SpiceOrder 9
PIN 144 240 RIGHT 8
PINATTR PinName Bias
PINATTR SpiceOrder 10
PIN -144 -144 LEFT 8
PINATTR PinName Vc1
PINATTR SpiceOrder 11
PIN -144 -240 LEFT 8
PINATTR PinName FB1
PINATTR SpiceOrder 12
PIN -144 -48 LEFT 8
PINATTR PinName SS1
PINATTR SpiceOrder 13
PIN 144 -48 RIGHT 8
PINATTR PinName SS2
PINATTR SpiceOrder 14
PIN 144 -240 RIGHT 8
PINATTR PinName FB2
PINATTR SpiceOrder 15
PIN 144 -144 RIGHT 8
PINATTR PinName Vc2
PINATTR SpiceOrder 16
PIN -144 240 LEFT 8
PINATTR PinName Rt
PINATTR SpiceOrder 17
PIN 64 -384 TOP 8
PINATTR PinName EN
PINATTR SpiceOrder 18
PIN -64 -384 TOP 8
PINATTR PinName Vin
PINATTR SpiceOrder 1
PIN 144 336 RIGHT 8
PINATTR PinName GND
PINATTR SpiceOrder 2
