Version 4
SymbolType CELL
RECTANGLE Normal -144 -240 144 240
TEXT 0 0 Center 2 LT
WINDOW 0 0 -144 Center 2
WINDOW 3 0 144 Center 2
SYMATTR Value LT8618-3.3
SYMATTR Prefix X
SYMATTR SpiceModel LT8618-3.3.sub
SYMATTR Value2 LT8618-3.3
SYMATTR Description High Efficiency 65V/100mA Synchronous Buck, 3.3V Fixed Output
PIN 144 -96 RIGHT 8
PINATTR PinName BST
PINATTR SpiceOrder 1
PIN 144 0 RIGHT 8
PINATTR PinName SW
PINATTR SpiceOrder 2
PIN 144 96 RIGHT 8
PINATTR PinName Bias
PINATTR SpiceOrder 3
PIN -144 0 LEFT 8
PINATTR PinName IntVcc
PINATTR SpiceOrder 4
PIN -144 192 LEFT 8
PINATTR PinName Rt
PINATTR SpiceOrder 5
PIN 144 192 RIGHT 8
PINATTR PinName OUT
PINATTR SpiceOrder 6
PIN -144 96 LEFT 8
PINATTR PinName TR/SS
PINATTR SpiceOrder 7
PIN 144 -192 RIGHT 8
PINATTR PinName PG
PINATTR SpiceOrder 8
PIN -144 -96 LEFT 8
PINATTR PinName EN/UV
PINATTR SpiceOrder 9
PIN -144 -192 LEFT 8
PINATTR PinName Vin
PINATTR SpiceOrder 10
PIN 0 240 BOTTOM 8
PINATTR PinName GND
PINATTR SpiceOrder 11
