Version 4
SymbolType CELL
RECTANGLE Normal -144 -192 144 192
TEXT 0 0 Center 2 LT
WINDOW 0 0 -96 Center 2
WINDOW 3 0 96 Center 2
SYMATTR Value LT8619
SYMATTR Prefix X
SYMATTR SpiceModel LT8619.sub
SYMATTR Value2 LT8619
SYMATTR Description 60V, 1.2A Synchronous Step-Down Regulator with 6µA Quiescent Current
PIN -144 -48 LEFT 8
PINATTR PinName Sync
PINATTR SpiceOrder 1
PIN -144 144 LEFT 8
PINATTR PinName Rt
PINATTR SpiceOrder 3
PIN -144 -144 LEFT 8
PINATTR PinName EN/UV
PINATTR SpiceOrder 4
PIN 0 -192 TOP 8
PINATTR PinName Vin
PINATTR SpiceOrder 5
PIN 144 144 RIGHT 8
PINATTR PinName SW
PINATTR SpiceOrder 9
PIN 144 48 RIGHT 8
PINATTR PinName BST
PINATTR SpiceOrder 12
PIN 144 -144 RIGHT 8
PINATTR PinName INTVcc
PINATTR SpiceOrder 13
PIN 144 -48 RIGHT 8
PINATTR PinName Bias
PINATTR SpiceOrder 14
PIN -144 48 LEFT 8
PINATTR PinName PG
PINATTR SpiceOrder 15
PIN 64 192 BOTTOM 8
PINATTR PinName FB
PINATTR SpiceOrder 16
PIN -64 192 BOTTOM 8
PINATTR PinName GND
PINATTR SpiceOrder 17
