Version 4
SymbolType CELL
RECTANGLE Normal -624 -384 624 384
TEXT 0 0 Center 2 LT
WINDOW 0 0 -48 Center 2
WINDOW 3 0 48 Center 2
SYMATTR Value LT8708-1
SYMATTR Prefix X
SYMATTR SpiceModel LT8708-1.sub
SYMATTR Value2 LT8708-1
SYMATTR Description 80V Synchronous 4-Switch Buck-Boost Slave Controller for LT8708 Multiphase System
PIN -624 -128 LEFT 8
PINATTR PinName _SHDN
PINATTR SpiceOrder 1
PIN 64 -384 TOP 8
PINATTR PinName CSN
PINATTR SpiceOrder 2
PIN -64 -384 TOP 8
PINATTR PinName CSP
PINATTR SpiceOrder 3
PIN -624 0 LEFT 8
PINATTR PinName LDO33
PINATTR SpiceOrder 4
PIN -624 128 LEFT 8
PINATTR PinName FBIN
PINATTR SpiceOrder 5
PIN 624 -128 RIGHT 8
PINATTR PinName FBOUT
PINATTR SpiceOrder 6
PIN 624 320 RIGHT 8
PINATTR PinName IMON_OP
PINATTR SpiceOrder 7
PIN 624 192 RIGHT 8
PINATTR PinName VC
PINATTR SpiceOrder 8
PIN -624 256 LEFT 8
PINATTR PinName SS
PINATTR SpiceOrder 9
PIN 64 384 BOTTOM 8
PINATTR PinName CLKOUT
PINATTR SpiceOrder 10
PIN -80 384 BOTTOM 8
PINATTR PinName _RVSOFF
PINATTR SpiceOrder 11
PIN -624 192 LEFT 8
PINATTR PinName RT
PINATTR SpiceOrder 12
PIN -224 384 BOTTOM 8
PINATTR PinName GND
PINATTR SpiceOrder 13
PIN -192 -384 TOP 8
PINATTR PinName BG1
PINATTR SpiceOrder 14
PIN 624 0 RIGHT 8
PINATTR PinName GATEVCC
PINATTR SpiceOrder 15
PIN 192 -384 TOP 8
PINATTR PinName BG2
PINATTR SpiceOrder 16
PIN 448 -384 TOP 8
PINATTR PinName BOOST2
PINATTR SpiceOrder 17
PIN 576 -384 TOP 8
PINATTR PinName TG2
PINATTR SpiceOrder 18
PIN 320 -384 TOP 8
PINATTR PinName SW2
PINATTR SpiceOrder 19
PIN -320 -384 TOP 8
PINATTR PinName SW1
PINATTR SpiceOrder 21
PIN -576 -384 TOP 8
PINATTR PinName TG1
PINATTR SpiceOrder 22
PIN -448 -384 TOP 8
PINATTR PinName BOOST1
PINATTR SpiceOrder 23
PIN 624 -192 RIGHT 8
PINATTR PinName ExtVcc
PINATTR SpiceOrder 29
PIN 624 -256 RIGHT 8
PINATTR PinName CSNOUT
PINATTR SpiceOrder 30
PIN 624 -320 RIGHT 8
PINATTR PinName CSPOUT
PINATTR SpiceOrder 31
PIN -624 -320 LEFT 8
PINATTR PinName CSNIN
PINATTR SpiceOrder 32
PIN -624 -256 LEFT 8
PINATTR PinName CSPIN
PINATTR SpiceOrder 33
PIN -624 -192 LEFT 8
PINATTR PinName Vin
PINATTR SpiceOrder 34
PIN 624 -64 RIGHT 8
PINATTR PinName INTVCC
PINATTR SpiceOrder 35
PIN -624 -64 LEFT 8
PINATTR PinName SWEN
PINATTR SpiceOrder 36
PIN -624 64 LEFT 8
PINATTR PinName MODE
PINATTR SpiceOrder 37
PIN 624 256 RIGHT 8
PINATTR PinName IMON_INP
PINATTR SpiceOrder 38
PIN 208 384 BOTTOM 8
PINATTR PinName SYNC
PINATTR SpiceOrder 39
PIN -368 384 BOTTOM 8
PINATTR PinName DIR
PINATTR SpiceOrder 42
PIN 496 384 BOTTOM 8
PINATTR PinName IMON_ON
PINATTR SpiceOrder 43
PIN 352 384 BOTTOM 8
PINATTR PinName IMON_INN
PINATTR SpiceOrder 44
PIN -624 320 LEFT 8
PINATTR PinName VINHIMON
PINATTR SpiceOrder 45
PIN -512 384 BOTTOM 8
PINATTR PinName VOUTLOMON
PINATTR SpiceOrder 46
PIN 624 64 RIGHT 8
PINATTR PinName ICP
PINATTR SpiceOrder 47
PIN 624 128 RIGHT 8
PINATTR PinName ICN
PINATTR SpiceOrder 48
