Version 4
SymbolType CELL
RECTANGLE Normal -128 -96 128 96
TEXT 0 0 Center 2 LT
WINDOW 0 0 -32 Center 2
WINDOW 3 0 32 Center 2
SYMATTR Value LTC1693-3
SYMATTR Prefix X
SYMATTR SpiceModel LTC1693-3.sub
SYMATTR Value2 LTC1693-3
SYMATTR Description High Speed MOSFET Driver
PIN -128 -48 LEFT 8
PINATTR PinName IN
PINATTR SpiceOrder 1
PIN -128 48 LEFT 8
PINATTR PinName PHI
PINATTR SpiceOrder 3
PIN 0 96 BOTTOM 8
PINATTR PinName GND
PINATTR SpiceOrder 4
PIN 128 -48 RIGHT 8
PINATTR PinName OUT
PINATTR SpiceOrder 7
PIN 0 -96 TOP 8
PINATTR PinName Vcc
PINATTR SpiceOrder 8
