Version 4
SymbolType CELL
RECTANGLE Normal -128 -128 128 128
TEXT 0 0 Center 2 LT
WINDOW 0 0 -76 Center 2
WINDOW 3 0 73 Center 2
SYMATTR Value LTC1693-1
SYMATTR Prefix X
SYMATTR SpiceModel LTC1693-1.sub
SYMATTR Value2 LTC1693-1
SYMATTR Description Dual High Speed MOSFET Driver
PIN -128 -48 LEFT 8
PINATTR PinName IN1
PINATTR SpiceOrder 1
PIN -64 128 BOTTOM 8
PINATTR PinName GND1
PINATTR SpiceOrder 2
PIN -128 48 LEFT 8
PINATTR PinName IN2
PINATTR SpiceOrder 3
PIN 64 128 BOTTOM 8
PINATTR PinName GND2
PINATTR SpiceOrder 4
PIN 128 48 RIGHT 8
PINATTR PinName OUT2
PINATTR SpiceOrder 5
PIN 64 -128 TOP 8
PINATTR PinName Vcc2
PINATTR SpiceOrder 6
PIN 128 -48 RIGHT 8
PINATTR PinName OUT1
PINATTR SpiceOrder 7
PIN -64 -128 TOP 8
PINATTR PinName Vcc1
PINATTR SpiceOrder 8
