Version 4
SymbolType CELL
RECTANGLE Normal -352 -592 352 592
TEXT 0 -96 Center 2 LT
WINDOW 0 0 -192 Center 2
WINDOW 3 0 0 Center 2
WINDOW 123 0 160 Center 2
WINDOW 39 0 128 Center 2
WINDOW 40 0 96 Center 2
SYMATTR Value LTC2992
SYMATTR Value2 CA2=0 CA1=0 CA0=0
SYMATTR SpiceLine CA6=0 CA5=0  CA4=0 CA3=0
SYMATTR SpiceLine2 NADC7=0   CA7=0
SYMATTR Prefix X
SYMATTR Description Dual Wide Range Power Monitor
SYMATTR ModelFile LTC2992.sub
PIN -352 -448 LEFT 8
PINATTR PinName Vdd
PINATTR SpiceOrder 1
PIN -352 448 LEFT 8
PINATTR PinName GND
PINATTR SpiceOrder 2
PIN -352 -352 LEFT 8
PINATTR PinName IntVcc
PINATTR SpiceOrder 3
PIN -352 -176 LEFT 8
PINATTR PinName GPIO1
PINATTR SpiceOrder 4
PIN -352 -80 LEFT 8
PINATTR PinName GPIO2
PINATTR SpiceOrder 5
PIN -352 16 LEFT 8
PINATTR PinName GPIO3
PINATTR SpiceOrder 6
PIN -352 112 LEFT 8
PINATTR PinName GPIO4
PINATTR SpiceOrder 7
PIN -352 288 LEFT 8
PINATTR PinName >SD
PINATTR SpiceOrder 8
PIN -208 -592 TOP 8
PINATTR PinName Sense1+
PINATTR SpiceOrder 9
PIN -80 -592 TOP 8
PINATTR PinName Sense1-
PINATTR SpiceOrder 10
PIN 80 -592 TOP 8
PINATTR PinName Sense2+
PINATTR SpiceOrder 11
PIN 208 -592 TOP 8
PINATTR PinName Sense2-
PINATTR SpiceOrder 12
PIN 352 -512 RIGHT 8
PINATTR PinName >Power1
PINATTR SpiceOrder 13
PIN 352 -464 RIGHT 8
PINATTR PinName >MaxPower1
PINATTR SpiceOrder 14
PIN 352 -416 RIGHT 8
PINATTR PinName >MinPower1
PINATTR SpiceOrder 15
PIN 352 -352 RIGHT 8
PINATTR PinName >Power2
PINATTR SpiceOrder 16
PIN 352 -304 RIGHT 8
PINATTR PinName >MaxPower2
PINATTR SpiceOrder 17
PIN 352 -256 RIGHT 8
PINATTR PinName >MinPower2
PINATTR SpiceOrder 18
PIN 352 -192 RIGHT 8
PINATTR PinName >DSense1
PINATTR SpiceOrder 19
PIN 352 -144 RIGHT 8
PINATTR PinName >MaxDSense1
PINATTR SpiceOrder 20
PIN 352 -96 RIGHT 8
PINATTR PinName >MinDSense1
PINATTR SpiceOrder 21
PIN 352 -32 RIGHT 8
PINATTR PinName >DSense2
PINATTR SpiceOrder 22
PIN 352 16 RIGHT 8
PINATTR PinName >MaxDSense2
PINATTR SpiceOrder 23
PIN 352 64 RIGHT 8
PINATTR PinName >MinDSense2
PINATTR SpiceOrder 24
PIN 352 128 RIGHT 8
PINATTR PinName >Sense1+
PINATTR SpiceOrder 25
PIN 352 176 RIGHT 8
PINATTR PinName >MaxSense1+
PINATTR SpiceOrder 26
PIN 352 224 RIGHT 8
PINATTR PinName >MinSense1+
PINATTR SpiceOrder 27
PIN 352 288 RIGHT 8
PINATTR PinName >Sense2+
PINATTR SpiceOrder 28
PIN 352 336 RIGHT 8
PINATTR PinName >MaxSense2+
PINATTR SpiceOrder 29
PIN 352 384 RIGHT 8
PINATTR PinName >MinSense2+
PINATTR SpiceOrder 30
PIN -224 592 VLEFT 8
PINATTR PinName <GPIO1
PINATTR SpiceOrder 31
PIN -192 592 VLEFT 8
PINATTR PinName <MaxGPIO1
PINATTR SpiceOrder 32
PIN -160 592 VLEFT 8
PINATTR PinName <MinGPIO1
PINATTR SpiceOrder 33
PIN -96 592 VLEFT 8
PINATTR PinName <GPIO2
PINATTR SpiceOrder 34
PIN -64 592 VLEFT 8
PINATTR PinName <MaxGPIO2
PINATTR SpiceOrder 35
PIN -32 592 VLEFT 8
PINATTR PinName <MinGPIO2
PINATTR SpiceOrder 36
PIN 32 592 VLEFT 8
PINATTR PinName <GPIO3
PINATTR SpiceOrder 37
PIN 64 592 VLEFT 8
PINATTR PinName <MaxGPIO3
PINATTR SpiceOrder 38
PIN 96 592 VLEFT 8
PINATTR PinName <MinGPIO3
PINATTR SpiceOrder 39
PIN 160 592 VLEFT 8
PINATTR PinName <GPIO4
PINATTR SpiceOrder 40
PIN 192 592 VLEFT 8
PINATTR PinName <MaxGPIO4
PINATTR SpiceOrder 41
PIN 224 592 VLEFT 8
PINATTR PinName <MinGPIO4
PINATTR SpiceOrder 42
