Version 4
SymbolType CELL
RECTANGLE Normal -160 -176 160 208
TEXT 0 0 Center 2 LT
WINDOW 0 0 -56 Center 2
WINDOW 3 0 104 Center 2
SYMATTR Value LTC3310S-1
SYMATTR Prefix X
SYMATTR SpiceModel LTC3310S-1.sub
SYMATTR Value2 LTC3310S-1
SYMATTR Description 5V, Fixed 1V Output, 10A, Synchronous Step-down Silent Switcher 2\n\nNote: SSTT pin Temperature Monitoring function is not modeled
PIN 0 -176 TOP 8
PINATTR PinName Vin
PINATTR SpiceOrder 1
PIN -160 -128 LEFT 8
PINATTR PinName EN
PINATTR SpiceOrder 2
PIN 160 -32 RIGHT 8
PINATTR PinName SW
PINATTR SpiceOrder 3
PIN 160 64 RIGHT 8
PINATTR PinName Vout
PINATTR SpiceOrder 4
PIN -64 208 BOTTOM 8
PINATTR PinName Agnd
PINATTR SpiceOrder 5
PIN 64 208 BOTTOM 8
PINATTR PinName Pgnd
PINATTR SpiceOrder 6
PIN 160 160 RIGHT 8
PINATTR PinName Rt
PINATTR SpiceOrder 7
PIN 160 -128 RIGHT 8
PINATTR PinName Pgood
PINATTR SpiceOrder 8
PIN -160 -32 LEFT 8
PINATTR PinName Mode/Sync
PINATTR SpiceOrder 9
PIN -160 160 LEFT 8
PINATTR PinName Ith
PINATTR SpiceOrder 10
PIN -160 64 LEFT 8
PINATTR PinName SSTT
PINATTR SpiceOrder 11
