Version 4
SymbolType CELL
RECTANGLE Normal -144 -320 144 336
TEXT 0 0 Center 2 LT
WINDOW 0 0 -128 Center 2
WINDOW 3 0 144 Center 2
SYMATTR Value LTC3376
SYMATTR SpiceLine CHAN=1
SYMATTR Prefix X
SYMATTR Value2 LTC3376
SYMATTR Description 20V, 4-Channel Buck DCDC with 8x Configurable 1.5A Power Stages
SYMATTR ModelFile LTC3376.sub
PIN -144 192 LEFT 8
PINATTR PinName RT
PINATTR SpiceOrder 1
PIN -144 96 LEFT 8
PINATTR PinName SYNC
PINATTR SpiceOrder 2
PIN -144 -272 LEFT 8
PINATTR PinName Vin
PINATTR SpiceOrder 3
PIN 144 0 RIGHT 8
PINATTR PinName FB1
PINATTR SpiceOrder 4
PIN 144 -96 RIGHT 8
PINATTR PinName SW
PINATTR SpiceOrder 5
PIN 144 96 RIGHT 8
PINATTR PinName FB2
PINATTR SpiceOrder 6
PIN -144 -96 LEFT 8
PINATTR PinName EN
PINATTR SpiceOrder 7
PIN -144 -176 LEFT 8
PINATTR PinName Vcc
PINATTR SpiceOrder 8
PIN 144 -272 RIGHT 8
PINATTR PinName ExtVcc
PINATTR SpiceOrder 9
PIN -144 0 LEFT 8
PINATTR PinName IntVcc
PINATTR SpiceOrder 10
PIN -144 288 LEFT 8
PINATTR PinName GND
PINATTR SpiceOrder 11
PIN 144 192 RIGHT 8
PINATTR PinName PGOOD
PINATTR SpiceOrder 12
PIN 144 288 RIGHT 8
PINATTR PinName Imon
PINATTR SpiceOrder 13
PIN 144 -176 RIGHT 8
PINATTR PinName BST
PINATTR SpiceOrder 14
