Version 4
SymbolType CELL
RECTANGLE Normal -144 -176 144 192
TEXT 0 0 Center 2 LT
WINDOW 0 0 -96 Center 2
WINDOW 3 0 96 Center 2
SYMATTR Value LTC3375
SYMATTR Prefix X
SYMATTR Value2 LTC3375
SYMATTR Description High Accuracy 8-Channel Parallelable 1A Buck DC/DC
SYMATTR SpiceModel LTC3375.sub
PIN -144 144 LEFT 8
PINATTR PinName Rt
PINATTR SpiceOrder 1
PIN -144 48 LEFT 8
PINATTR PinName SYNC
PINATTR SpiceOrder 2
PIN -144 -128 LEFT 8
PINATTR PinName Vin
PINATTR SpiceOrder 3
PIN 144 -48 RIGHT 8
PINATTR PinName FB
PINATTR SpiceOrder 4
PIN 144 -144 RIGHT 8
PINATTR PinName SW
PINATTR SpiceOrder 5
PIN -144 -48 LEFT 8
PINATTR PinName EN
PINATTR SpiceOrder 7
PIN 144 144 RIGHT 8
PINATTR PinName GND
PINATTR SpiceOrder 8
PIN 144 48 RIGHT 8
PINATTR PinName Mode
PINATTR SpiceOrder 9
