Version 4
SymbolType CELL
RECTANGLE Normal -160 -176 160 192
TEXT 0 0 Center 2 LT
WINDOW 0 0 -56 Center 2
WINDOW 3 0 55 Center 2
SYMATTR Value LTC3307A
SYMATTR Prefix X
SYMATTR SpiceModel LTC3307A.sub
SYMATTR Value2 LTC3307A
SYMATTR Description 5V, 3A, 3MHz, Synchronous Silent Switcher Step-down DC/DC Converter
PIN 0 -176 TOP 8
PINATTR PinName Vin
PINATTR SpiceOrder 1
PIN -160 -112 LEFT 8
PINATTR PinName EN
PINATTR SpiceOrder 2
PIN 160 0 RIGHT 8
PINATTR PinName SW
PINATTR SpiceOrder 3
PIN 160 112 RIGHT 8
PINATTR PinName FB
PINATTR SpiceOrder 4
PIN -64 192 BOTTOM 8
PINATTR PinName AGND
PINATTR SpiceOrder 5
PIN 64 192 BOTTOM 8
PINATTR PinName PGND
PINATTR SpiceOrder 6
PIN -160 0 LEFT 8
PINATTR PinName Rt
PINATTR SpiceOrder 7
PIN 160 -112 RIGHT 8
PINATTR PinName Pgood
PINATTR SpiceOrder 8
PIN -160 112 LEFT 8
PINATTR PinName Mode/Sync
PINATTR SpiceOrder 9
