Version 4
SymbolType CELL
RECTANGLE Normal 176 368 -176 -368
TEXT 0 0 Center 2 LT
WINDOW 3 -1 200 Center 2
WINDOW 0 0 -192 Center 2
SYMATTR Value LTC3815
SYMATTR Prefix X
SYMATTR Description 6A Monolithic DC/DC Step-Down Converter with Digital Power System Management \n\nNote: PMBus is not modeled
SYMATTR SpiceLine Vout_margin_high=.1 Vout_margin_low=.1
SYMATTR ModelFile LTC3815.sub
PIN -176 160 LEFT 8
PINATTR PinName Rt
PINATTR SpiceOrder 1
PIN -176 -80 LEFT 8
PINATTR PinName Margin
PINATTR SpiceOrder 3
PIN -176 0 LEFT 8
PINATTR PinName CLKOUT
PINATTR SpiceOrder 6
PIN -176 -240 LEFT 8
PINATTR PinName Mode/Sync
PINATTR SpiceOrder 9
PIN 176 -320 RIGHT 8
PINATTR PinName SW
PINATTR SpiceOrder 10
PIN 64 -368 TOP 8
PINATTR PinName PVin
PINATTR SpiceOrder 15
PIN -64 -368 TOP 8
PINATTR PinName Vin
PINATTR SpiceOrder 24
PIN -176 240 LEFT 8
PINATTR PinName Pgfd
PINATTR SpiceOrder 25
PIN -176 -320 LEFT 8
PINATTR PinName Run
PINATTR SpiceOrder 26
PIN -176 80 LEFT 8
PINATTR PinName Cslew
PINATTR SpiceOrder 28
PIN 176 240 RIGHT 8
PINATTR PinName Pgood
PINATTR SpiceOrder 29
PIN -176 -160 LEFT 8
PINATTR PinName Track/SS
PINATTR SpiceOrder 30
PIN 176 -160 RIGHT 8
PINATTR PinName Vss_sense
PINATTR SpiceOrder 31
PIN 176 -240 RIGHT 8
PINATTR PinName Vcc_sense
PINATTR SpiceOrder 32
PIN 176 -80 RIGHT 8
PINATTR PinName DAout
PINATTR SpiceOrder 33
PIN 176 80 RIGHT 8
PINATTR PinName Ith
PINATTR SpiceOrder 34
PIN 176 0 RIGHT 8
PINATTR PinName FB
PINATTR SpiceOrder 35
PIN 176 160 RIGHT 8
PINATTR PinName Ref
PINATTR SpiceOrder 36
PIN 176 320 RIGHT 8
PINATTR PinName Pglim
PINATTR SpiceOrder 37
PIN -176 320 LEFT 8
PINATTR PinName SGND
PINATTR SpiceOrder 38
PIN 0 368 BOTTOM 8
PINATTR PinName PGND
PINATTR SpiceOrder 39
