Version 4
SymbolType CELL
RECTANGLE Normal -160 -160 160 208
TEXT 0 16 Center 2 LT
WINDOW 0 0 -41 Center 2
WINDOW 3 0 71 Center 2
SYMATTR Value LTC3309A
SYMATTR Prefix X
SYMATTR SpiceModel LTC3309A.sub
SYMATTR Value2 LTC3309A
SYMATTR Description 5V, 6A, 3MHz, Synchronous Silent Switcher Step-down DC/DC Converter
PIN 0 -160 TOP 8
PINATTR PinName Vin
PINATTR SpiceOrder 1
PIN -160 -96 LEFT 8
PINATTR PinName EN
PINATTR SpiceOrder 2
PIN 160 16 RIGHT 8
PINATTR PinName SW
PINATTR SpiceOrder 3
PIN 160 128 RIGHT 8
PINATTR PinName FB
PINATTR SpiceOrder 4
PIN -64 208 BOTTOM 8
PINATTR PinName AGND
PINATTR SpiceOrder 5
PIN 64 208 BOTTOM 8
PINATTR PinName PGND
PINATTR SpiceOrder 6
PIN -160 16 LEFT 8
PINATTR PinName RT
PINATTR SpiceOrder 7
PIN 160 -96 RIGHT 8
PINATTR PinName Pgood
PINATTR SpiceOrder 8
PIN -160 128 LEFT 8
PINATTR PinName Mode/Sync
PINATTR SpiceOrder 9
