Version 4
SymbolType CELL
RECTANGLE Normal -160 -240 160 304
TEXT 0 0 Center 2 LT
WINDOW 0 0 -96 Center 2
WINDOW 3 0 96 Center 2
SYMATTR Value LTC3315A
SYMATTR Prefix X
SYMATTR SpiceModel LTC3315A.sub
SYMATTR Value2 LTC3315A
SYMATTR Description Dual 5V, 2A, 3MHz, Synchronous Step-Down DC/DC Converter
PIN -160 -192 LEFT 8
PINATTR PinName Vin
PINATTR SpiceOrder 1
PIN -160 -80 LEFT 8
PINATTR PinName EN1
PINATTR SpiceOrder 2
PIN 160 -80 RIGHT 8
PINATTR PinName SW1
PINATTR SpiceOrder 3
PIN 160 32 RIGHT 8
PINATTR PinName FB1
PINATTR SpiceOrder 4
PIN -160 256 LEFT 8
PINATTR PinName GND
PINATTR SpiceOrder 5
PIN 160 256 RIGHT 8
PINATTR PinName FB2
PINATTR SpiceOrder 6
PIN -160 32 LEFT 8
PINATTR PinName EN2
PINATTR SpiceOrder 7
PIN 160 -192 RIGHT 8
PINATTR PinName Pgood
PINATTR SpiceOrder 8
PIN -160 144 LEFT 8
PINATTR PinName Mode/Sync
PINATTR SpiceOrder 9
PIN 160 144 RIGHT 8
PINATTR PinName SW2
PINATTR SpiceOrder 10
