Version 4
SymbolType CELL
RECTANGLE Normal -128 -256 128 256
TEXT 0 0 Center 2 LT
WINDOW 0 0 -144 Center 2
WINDOW 3 0 144 Center 2
SYMATTR Value LTC3246
SYMATTR Prefix X
SYMATTR SpiceModel LTC3246.sub
SYMATTR Value2 LTC3246
SYMATTR Description Wide Vin Range Buck-Boost Charge Pump \n\n(Watchdog timer not modeled)
PIN -128 -192 LEFT 8
PINATTR PinName Vin
PINATTR SpiceOrder 6
PIN -128 -96 LEFT 8
PINATTR PinName Bias
PINATTR SpiceOrder 4
PIN -128 96 LEFT 8
PINATTR PinName SEL1
PINATTR SpiceOrder 7
PIN -128 192 LEFT 8
PINATTR PinName SEL2
PINATTR SpiceOrder 5
PIN 128 -96 RIGHT 8
PINATTR PinName OUTS/ADJ
PINATTR SpiceOrder 16
PIN 128 96 RIGHT 8
PINATTR PinName RST
PINATTR SpiceOrder 14
PIN -48 -256 TOP 8
PINATTR PinName C+
PINATTR SpiceOrder 11
PIN 128 -192 RIGHT 8
PINATTR PinName Vout
PINATTR SpiceOrder 12
PIN 48 -256 TOP 8
PINATTR PinName C-
PINATTR SpiceOrder 13
PIN 128 192 RIGHT 8
PINATTR PinName GND
PINATTR SpiceOrder 15
PIN -128 0 LEFT 8
PINATTR PinName RT
PINATTR SpiceOrder 2
PIN 128 0 RIGHT 8
PINATTR PinName RSTI
PINATTR SpiceOrder 3
