Version 4
SymbolType CELL
RECTANGLE Normal -352 -624 353 623
TEXT 0 0 Center 2 LT
WINDOW 0 0 -288 Center 2
WINDOW 3 0 288 Center 2
SYMATTR Value LTC3371
SYMATTR Prefix X
SYMATTR SpiceModel LTC3371.sub
SYMATTR Value2 LTC3371
SYMATTR Description 4-Channel 8A Configurable Buck DC/DCs (Watchdog and Temp not modelled)
PIN -272 -624 TOP 8
PINATTR PinName Vcc
PINATTR SpiceOrder 1
PIN -352 512 LEFT 8
PINATTR PinName Temp
PINATTR SpiceOrder 2
PIN -352 -96 LEFT 8
PINATTR PinName _RST1
PINATTR SpiceOrder 3
PIN -352 -432 LEFT 8
PINATTR PinName EN1
PINATTR SpiceOrder 4
PIN 272 -624 TOP 8
PINATTR PinName FB1
PINATTR SpiceOrder 5
PIN -160 -624 TOP 8
PINATTR PinName VinA
PINATTR SpiceOrder 6
PIN -48 -624 TOP 8
PINATTR PinName SWA
PINATTR SpiceOrder 7
PIN 176 -624 TOP 8
PINATTR PinName SWB
PINATTR SpiceOrder 8
PIN 64 -624 TOP 8
PINATTR PinName VinB
PINATTR SpiceOrder 9
PIN 352 -560 RIGHT 8
PINATTR PinName VinC
PINATTR SpiceOrder 10
PIN 352 -480 RIGHT 8
PINATTR PinName SWC
PINATTR SpiceOrder 11
PIN 352 -320 RIGHT 8
PINATTR PinName SWD
PINATTR SpiceOrder 12
PIN 352 -400 RIGHT 8
PINATTR PinName VinD
PINATTR SpiceOrder 13
PIN 352 -240 RIGHT 8
PINATTR PinName FB2
PINATTR SpiceOrder 14
PIN -352 -352 LEFT 8
PINATTR PinName EN2
PINATTR SpiceOrder 15
PIN -352 0 LEFT 8
PINATTR PinName _RST2
PINATTR SpiceOrder 16
PIN 224 624 BOTTOM 8
PINATTR PinName C1
PINATTR SpiceOrder 17
PIN 128 624 BOTTOM 8
PINATTR PinName C2
PINATTR SpiceOrder 18
PIN 16 624 BOTTOM 8
PINATTR PinName C3
PINATTR SpiceOrder 19
PIN -352 352 LEFT 8
PINATTR PinName WDI
PINATTR SpiceOrder 20
PIN -352 432 LEFT 8
PINATTR PinName WDO
PINATTR SpiceOrder 21
PIN -352 272 LEFT 8
PINATTR PinName CT
PINATTR SpiceOrder 22
PIN -352 96 LEFT 8
PINATTR PinName _RST3
PINATTR SpiceOrder 23
PIN -352 -272 LEFT 8
PINATTR PinName EN3
PINATTR SpiceOrder 24
PIN 352 160 RIGHT 8
PINATTR PinName FB3
PINATTR SpiceOrder 25
PIN 352 -160 RIGHT 8
PINATTR PinName VinE
PINATTR SpiceOrder 26
PIN 352 -80 RIGHT 8
PINATTR PinName SWE
PINATTR SpiceOrder 27
PIN 352 80 RIGHT 8
PINATTR PinName SWF
PINATTR SpiceOrder 28
PIN 352 0 RIGHT 8
PINATTR PinName VinF
PINATTR SpiceOrder 29
PIN 352 240 RIGHT 8
PINATTR PinName VinG
PINATTR SpiceOrder 30
PIN 352 320 RIGHT 8
PINATTR PinName SWG
PINATTR SpiceOrder 31
PIN 352 480 RIGHT 8
PINATTR PinName SWH
PINATTR SpiceOrder 32
PIN 352 400 RIGHT 8
PINATTR PinName VinH
PINATTR SpiceOrder 33
PIN 352 560 RIGHT 8
PINATTR PinName FB4
PINATTR SpiceOrder 34
PIN -352 -192 LEFT 8
PINATTR PinName EN4
PINATTR SpiceOrder 35
PIN -352 192 LEFT 8
PINATTR PinName _RST4
PINATTR SpiceOrder 36
PIN -240 624 BOTTOM 8
PINATTR PinName Rt
PINATTR SpiceOrder 37
PIN -352 -512 LEFT 8
PINATTR PinName PLL/Mode
PINATTR SpiceOrder 38
PIN -112 624 BOTTOM 8
PINATTR PinName GND
PINATTR SpiceOrder 39
