Version 4
SymbolType CELL
RECTANGLE Normal -144 -192 144 208
TEXT 0 0 Center 2 LT
WINDOW 0 0 -96 Center 2
WINDOW 3 0 80 Center 2
WINDOW 39 0 112 Center 1
SYMATTR Value LTC3370
SYMATTR SpiceLine CHAN=1
SYMATTR Prefix X
SYMATTR Value2 LTC3370
SYMATTR Description 20V, 4-Channel Buck DCDC with 8x Configurable 1A Power Stages
SYMATTR ModelFile LTC3370.sub
PIN 144 144 RIGHT 8
PINATTR PinName Rt
PINATTR SpiceOrder 1
PIN -144 144 LEFT 8
PINATTR PinName PLL/Mode
PINATTR SpiceOrder 2
PIN -144 -144 LEFT 8
PINATTR PinName Vin
PINATTR SpiceOrder 3
PIN 144 -48 RIGHT 8
PINATTR PinName FB
PINATTR SpiceOrder 4
PIN 144 -144 RIGHT 8
PINATTR PinName SW
PINATTR SpiceOrder 5
PIN -144 -48 LEFT 8
PINATTR PinName Vcc
PINATTR SpiceOrder 6
PIN -144 48 LEFT 8
PINATTR PinName EN
PINATTR SpiceOrder 7
PIN 0 208 BOTTOM 8
PINATTR PinName GND
PINATTR SpiceOrder 8
PIN 144 48 RIGHT 8
PINATTR PinName Pgood
PINATTR SpiceOrder 9
