Version 4
SymbolType CELL
RECTANGLE Normal -144 -784 144 864
TEXT 0 0 Center 2 LT
WINDOW 0 0 -416 Center 2
WINDOW 3 0 480 Center 2
SYMATTR Value LTC3888
SYMATTR SpiceLine Frequency_Switch=500 Vout0=2.5 Vout1=3  PWM_config=3 GM0=3m  GM1=3m Ton_Rise0=300u Ton_Rise1=300u Toff_Fall0=300u Toff_Fall1=300u Ton_Delay0=0 Ton_Delay1=0 Toff_Delay0=0
SYMATTR Prefix X
SYMATTR Value2 LTC3888
SYMATTR Description Dual Output 8-Phase Step-Down DC/DC Controller with Digital Power System Management
SYMATTR ModelFile LTC3888.sub
SYMATTR SpiceLine2 Toff_Delay1=0 Rith0=5k Rith1=5k  OC_Limit0=20 OC_Limit1=20 Ton_Min=45n VOUT_UV_Fault_Limit0=2.2 VOUT_UV_Fault_Limit1=2.8 VOUT_OV_Fault_Limit0=2.6 VOUT_OV_Fault_Limit1=3.1 Iout_Cal_Gain=5m Slave0=0 Slave1=0
PIN -144 -256 LEFT 8
PINATTR PinName PWM0
PINATTR SpiceOrder 1
PIN 144 -256 RIGHT 8
PINATTR PinName PWM1
PINATTR SpiceOrder 2
PIN -144 -144 LEFT 8
PINATTR PinName Isense0
PINATTR SpiceOrder 3
PIN 144 -144 RIGHT 8
PINATTR PinName Isense1
PINATTR SpiceOrder 4
PIN -144 336 LEFT 8
PINATTR PinName PWM2
PINATTR SpiceOrder 5
PIN -144 48 LEFT 8
PINATTR PinName Vsense0-
PINATTR SpiceOrder 6
PIN -144 -48 LEFT 8
PINATTR PinName Vsense0+
PINATTR SpiceOrder 7
PIN -144 144 LEFT 8
PINATTR PinName Ith0
PINATTR SpiceOrder 9
PIN -144 240 LEFT 8
PINATTR PinName Ithr0
PINATTR SpiceOrder 10
PIN -144 -448 LEFT 8
PINATTR PinName Pgood0
PINATTR SpiceOrder 11
PIN -144 -352 LEFT 8
PINATTR PinName Sync
PINATTR SpiceOrder 14
PIN 144 -352 RIGHT 8
PINATTR PinName CLKout
PINATTR SpiceOrder 16
PIN -144 -544 LEFT 8
PINATTR PinName Run0
PINATTR SpiceOrder 20
PIN 144 -544 RIGHT 8
PINATTR PinName Run1
PINATTR SpiceOrder 21
PIN -144 -640 LEFT 8
PINATTR PinName Vdd33
PINATTR SpiceOrder 30
PIN 144 -736 RIGHT 8
PINATTR PinName IntVcc
PINATTR SpiceOrder 31
PIN -144 -736 LEFT 8
PINATTR PinName Vin
PINATTR SpiceOrder 32
PIN 144 -640 RIGHT 8
PINATTR PinName Iref
PINATTR SpiceOrder 33
PIN 144 -448 RIGHT 8
PINATTR PinName Pgood1
PINATTR SpiceOrder 36
PIN 144 240 RIGHT 8
PINATTR PinName Ithr1
PINATTR SpiceOrder 37
PIN 144 144 RIGHT 8
PINATTR PinName Ith1
PINATTR SpiceOrder 38
PIN 144 -48 RIGHT 8
PINATTR PinName Vsense1+
PINATTR SpiceOrder 40
PIN 144 48 RIGHT 8
PINATTR PinName Vense1-
PINATTR SpiceOrder 41
PIN -144 528 LEFT 8
PINATTR PinName PWM3
PINATTR SpiceOrder 42
PIN -144 432 LEFT 8
PINATTR PinName Isense2
PINATTR SpiceOrder 43
PIN -144 624 LEFT 8
PINATTR PinName Isense3
PINATTR SpiceOrder 44
PIN -144 720 LEFT 8
PINATTR PinName PWM4
PINATTR SpiceOrder 45
PIN 144 720 RIGHT 8
PINATTR PinName PWM5
PINATTR SpiceOrder 46
PIN -144 816 LEFT 8
PINATTR PinName Isense4
PINATTR SpiceOrder 47
PIN 144 816 RIGHT 8
PINATTR PinName Isense5
PINATTR SpiceOrder 48
PIN 144 528 RIGHT 8
PINATTR PinName PWM6
PINATTR SpiceOrder 49
PIN 144 336 RIGHT 8
PINATTR PinName PWM7
PINATTR SpiceOrder 50
PIN 144 624 RIGHT 8
PINATTR PinName Isense6
PINATTR SpiceOrder 51
PIN 144 432 RIGHT 8
PINATTR PinName Isense7
PINATTR SpiceOrder 52
PIN 0 864 BOTTOM 8
PINATTR PinName GND
PINATTR SpiceOrder 53
