Version 4
SymbolType CELL
RECTANGLE Normal 304 208 -304 -208
TEXT 0 0 Center 2 LT
WINDOW 0 -1 -96 Center 2
WINDOW 3 0 96 Center 2
SYMATTR Value LTC3894
SYMATTR Prefix X
SYMATTR SpiceModel LTC3894.sub
SYMATTR Value2 LTC3894
SYMATTR Description 150V Low Iq Step-Down DC/DC Controller with 100% Duty Cycle Capability
PIN -112 -208 TOP 8
PINATTR PinName Gate
PINATTR SpiceOrder 1
PIN -304 -48 LEFT 8
PINATTR PinName Run
PINATTR SpiceOrder 2
PIN 112 -208 TOP 8
PINATTR PinName Sense+
PINATTR SpiceOrder 5
PIN 224 -208 TOP 8
PINATTR PinName Sense-
PINATTR SpiceOrder 6
PIN 224 208 BOTTOM 8
PINATTR PinName Ith
PINATTR SpiceOrder 7
PIN 304 -144 RIGHT 8
PINATTR PinName Pguv
PINATTR SpiceOrder 8
PIN 304 -48 RIGHT 8
PINATTR PinName Vfb
PINATTR SpiceOrder 9
PIN -112 208 BOTTOM 8
PINATTR PinName SS
PINATTR SpiceOrder 10
PIN 0 208 BOTTOM 8
PINATTR PinName Mode
PINATTR SpiceOrder 11
PIN 112 208 BOTTOM 8
PINATTR PinName Pgood
PINATTR SpiceOrder 12
PIN -224 208 BOTTOM 8
PINATTR PinName Freq
PINATTR SpiceOrder 13
PIN 304 48 RIGHT 8
PINATTR PinName Ovlo
PINATTR SpiceOrder 14
PIN -304 144 LEFT 8
PINATTR PinName Exts
PINATTR SpiceOrder 15
PIN -304 48 LEFT 8
PINATTR PinName Extg
PINATTR SpiceOrder 16
PIN -224 -208 TOP 8
PINATTR PinName Cap
PINATTR SpiceOrder 18
PIN -304 -144 LEFT 8
PINATTR PinName Vin
PINATTR SpiceOrder 20
PIN 304 144 RIGHT 8
PINATTR PinName Gnd
PINATTR SpiceOrder 21
