Version 4
SymbolType CELL
RECTANGLE Normal -592 -224 592 224
TEXT 0 0 Center 2 LT
WINDOW 3 0 48 Center 2
WINDOW 0 0 -48 Center 2
WINDOW 123 0 80 Center 2
WINDOW 39 0 112 Center 2
WINDOW 40 0 144 Center 2
SYMATTR Value LTC4283
SYMATTR Value2 A6=1 A5=0 A4=1 A3=1 A2=0 B7=0 B6=0 B5=0 B4=0 B3=0 B2=0 B1=1 B0=1
SYMATTR SpiceLine D7=0 D6=0 D5=0 D4=0 D3=0 D2=0 D1=0 D0=0
SYMATTR SpiceLine2 E7=1 E6=1 E5=0 E4=0 E3=0 E2=0 E1=0 F7=0
SYMATTR Prefix X
SYMATTR Description Negative Voltage Hot Swap Controller with Energy Monitor
SYMATTR ModelFile LTC4283.sub
PIN -592 160 LEFT 8
PINATTR PinName _EN
PINATTR SpiceOrder 1
PIN -592 -96 LEFT 8
PINATTR PinName UVL
PINATTR SpiceOrder 2
PIN -592 -160 LEFT 8
PINATTR PinName UVH
PINATTR SpiceOrder 3
PIN -592 -32 LEFT 8
PINATTR PinName OV
PINATTR SpiceOrder 4
PIN 592 -192 RIGHT 8
PINATTR PinName Vref
PINATTR SpiceOrder 5
PIN 592 -128 RIGHT 8
PINATTR PinName Voutth
PINATTR SpiceOrder 6
PIN -480 224 BOTTOM 8
PINATTR PinName Vee
PINATTR SpiceOrder 11
PIN -288 224 BOTTOM 8
PINATTR PinName Sense-
PINATTR SpiceOrder 14
PIN -176 224 BOTTOM 8
PINATTR PinName Sense+
PINATTR SpiceOrder 15
PIN 176 224 BOTTOM 8
PINATTR PinName Gate
PINATTR SpiceOrder 18
PIN 448 224 BOTTOM 8
PINATTR PinName Drain
PINATTR SpiceOrder 20
PIN 592 192 RIGHT 8
PINATTR PinName Drns
PINATTR SpiceOrder 21
PIN 448 -224 TOP 8
PINATTR PinName Rtns
PINATTR SpiceOrder 22
PIN -592 96 LEFT 8
PINATTR PinName Ramp
PINATTR SpiceOrder 23
PIN -592 32 LEFT 8
PINATTR PinName Tmr
PINATTR SpiceOrder 24
PIN 592 -64 RIGHT 8
PINATTR PinName PGIO1
PINATTR SpiceOrder 29
PIN 592 0 RIGHT 8
PINATTR PinName PGIO2
PINATTR SpiceOrder 30
PIN 592 64 RIGHT 8
PINATTR PinName PGIO3
PINATTR SpiceOrder 31
PIN 592 128 RIGHT 8
PINATTR PinName PGIO4
PINATTR SpiceOrder 32
PIN -480 -224 TOP 8
PINATTR PinName IntVcc
PINATTR SpiceOrder 42
PIN -144 -224 TOP 8
PINATTR PinName Vin
PINATTR SpiceOrder 43
PIN -240 -224 TOP 8
PINATTR PinName Vz
PINATTR SpiceOrder 44
