Version 4
SymbolType BLOCK
RECTANGLE Normal -464 -192 464 240
TEXT 0 0 Center 2 LT
WINDOW 0 1 -97 Center 2
WINDOW 3 0 96 Center 2
SYMATTR Value LTC4238
SYMATTR Prefix X
SYMATTR SpiceModel LTC4238.sub
SYMATTR Description High Voltage, High Current, Hot Swap Controller
SYMATTR Value2 LTC4238
PIN -176 -192 TOP 8
PINATTR PinName Sense1-
PINATTR SpiceOrder 1
PIN -304 -192 TOP 8
PINATTR PinName Sense1+
PINATTR SpiceOrder 2
PIN 80 -192 TOP 8
PINATTR PinName Sense2-
PINATTR SpiceOrder 3
PIN -48 -192 TOP 8
PINATTR PinName Sense2+
PINATTR SpiceOrder 4
PIN -416 -192 TOP 8
PINATTR PinName Vdd
PINATTR SpiceOrder 5
PIN -464 -96 LEFT 8
PINATTR PinName UV
PINATTR SpiceOrder 7
PIN -464 128 LEFT 8
PINATTR PinName OV
PINATTR SpiceOrder 8
PIN 464 192 RIGHT 8
PINATTR PinName Comm
PINATTR SpiceOrder 9
PIN 304 240 BOTTOM 8
PINATTR PinName Tmr
PINATTR SpiceOrder 10
PIN 96 240 BOTTOM 8
PINATTR PinName TmrFet
PINATTR SpiceOrder 11
PIN -224 240 BOTTOM 8
PINATTR PinName Iset
PINATTR SpiceOrder 12
PIN -352 240 BOTTOM 8
PINATTR PinName Config2
PINATTR SpiceOrder 13
PIN -128 240 BOTTOM 8
PINATTR PinName Config1
PINATTR SpiceOrder 14
PIN -16 240 BOTTOM 8
PINATTR PinName IntVcc
PINATTR SpiceOrder 15
PIN 464 64 RIGHT 8
PINATTR PinName FB
PINATTR SpiceOrder 16
PIN 208 240 BOTTOM 8
PINATTR PinName Gnd
PINATTR SpiceOrder 17
PIN -464 16 LEFT 8
PINATTR PinName Flt#
PINATTR SpiceOrder 18
PIN 464 128 RIGHT 8
PINATTR PinName PG
PINATTR SpiceOrder 19
PIN 464 0 RIGHT 8
PINATTR PinName VDSFB
PINATTR SpiceOrder 21
PIN 464 -128 RIGHT 8
PINATTR PinName Source
PINATTR SpiceOrder 22
PIN 384 -192 TOP 8
PINATTR PinName Gate2
PINATTR SpiceOrder 23
PIN 256 -192 TOP 8
PINATTR PinName Gate1
PINATTR SpiceOrder 24
