Version 4
SymbolType CELL
RECTANGLE Normal -704 -400 705 400
TEXT 0 0 Center 2 LT
WINDOW 0 0 -96 Center 2
WINDOW 123 0 96 Center 2
SYMATTR Value2 LTC4421
SYMATTR Value LTC4421
SYMATTR SpiceModel LTC4421.sub
SYMATTR Description High Power Prioritized PowerPath Controller
SYMATTR Prefix X
PIN -48 -400 VRIGHT 10
PINATTR PinName CPO
PINATTR SpiceOrder 1
PIN 48 -400 VRIGHT 10
PINATTR PinName CPORef
PINATTR SpiceOrder 2
PIN -160 -400 VRIGHT 10
PINATTR PinName Out1
PINATTR SpiceOrder 3
PIN -256 -400 VRIGHT 10
PINATTR PinName Sense1
PINATTR SpiceOrder 4
PIN -384 -400 VRIGHT 10
PINATTR PinName Source1
PINATTR SpiceOrder 5
PIN -480 -400 VRIGHT 10
PINATTR PinName Gate1
PINATTR SpiceOrder 6
PIN -576 -400 VRIGHT 10
PINATTR PinName V1
PINATTR SpiceOrder 7
PIN -704 -336 LEFT 10
PINATTR PinName UVF1
PINATTR SpiceOrder 8
PIN -704 -208 LEFT 10
PINATTR PinName UVR1
PINATTR SpiceOrder 9
PIN -704 -80 LEFT 10
PINATTR PinName OV1
PINATTR SpiceOrder 10
PIN 0 400 BOTTOM 8
PINATTR PinName Tmr1
PINATTR SpiceOrder 11
PIN 704 208 RIGHT 10
PINATTR PinName _DISABLE1
PINATTR SpiceOrder 12
PIN 704 -128 RIGHT 10
PINATTR PinName _CH1
PINATTR SpiceOrder 13
PIN 704 -224 RIGHT 10
PINATTR PinName _VALID1
PINATTR SpiceOrder 14
PIN 704 -32 RIGHT 10
PINATTR PinName _FAULT1
PINATTR SpiceOrder 15
PIN 704 352 RIGHT 10
PINATTR PinName CASIN
PINATTR SpiceOrder 16
PIN 352 400 BOTTOM 8
PINATTR PinName IntVcc
PINATTR SpiceOrder 17
PIN 704 64 RIGHT 10
PINATTR PinName CASOUT
PINATTR SpiceOrder 18
PIN -176 400 BOTTOM 8
PINATTR PinName Qual
PINATTR SpiceOrder 19
PIN 704 160 RIGHT 10
PINATTR PinName RETRY
PINATTR SpiceOrder 20
PIN 704 304 RIGHT 10
PINATTR PinName _SHDN
PINATTR SpiceOrder 21
PIN 704 16 RIGHT 10
PINATTR PinName _FAULT2
PINATTR SpiceOrder 22
PIN 704 -176 RIGHT 10
PINATTR PinName _VALID2
PINATTR SpiceOrder 23
PIN 704 -80 RIGHT 10
PINATTR PinName _CH2
PINATTR SpiceOrder 24
PIN 704 256 RIGHT 10
PINATTR PinName _DISABLE2
PINATTR SpiceOrder 25
PIN 176 400 BOTTOM 8
PINATTR PinName Tmr2
PINATTR SpiceOrder 26
PIN -704 304 LEFT 10
PINATTR PinName OV2
PINATTR SpiceOrder 27
PIN -704 176 LEFT 10
PINATTR PinName UVR2
PINATTR SpiceOrder 28
PIN -704 48 LEFT 10
PINATTR PinName UVF2
PINATTR SpiceOrder 29
PIN 160 -400 VRIGHT 10
PINATTR PinName V2
PINATTR SpiceOrder 30
PIN 256 -400 VRIGHT 10
PINATTR PinName Gate2
PINATTR SpiceOrder 31
PIN 352 -400 VRIGHT 10
PINATTR PinName Source2
PINATTR SpiceOrder 32
PIN 480 -400 VRIGHT 10
PINATTR PinName Sense2
PINATTR SpiceOrder 33
PIN 576 -400 VRIGHT 10
PINATTR PinName Out2
PINATTR SpiceOrder 34
PIN -352 400 BOTTOM 8
PINATTR PinName Gnd
PINATTR SpiceOrder 35
PIN 704 -304 RIGHT 10
PINATTR PinName ExtVcc
PINATTR SpiceOrder 36
