Version 4
SymbolType CELL
RECTANGLE Normal -368 -448 368 448
TEXT 0 0 Center 2 LT
WINDOW 0 2 -243 Center 2
WINDOW 3 2 242 Center 2
SYMATTR Value LTC7840
SYMATTR Prefix X
SYMATTR SpiceModel LTC7840.sub
SYMATTR Value2 LTC7840
SYMATTR Description Dual Phase Dual Output Non-Synchronous Boost Controller
PIN -288 448 BOTTOM 8
PINATTR PinName Dmax
PINATTR SpiceOrder 1
PIN 0 448 BOTTOM 8
PINATTR PinName Freq
PINATTR SpiceOrder 2
PIN -368 96 LEFT 8
PINATTR PinName SS1
PINATTR SpiceOrder 3
PIN -368 -96 LEFT 8
PINATTR PinName VFB1
PINATTR SpiceOrder 4
PIN -368 0 LEFT 8
PINATTR PinName Ith1
PINATTR SpiceOrder 5
PIN -288 -448 TOP 8
PINATTR PinName Run1
PINATTR SpiceOrder 6
PIN 288 -448 TOP 8
PINATTR PinName Run2
PINATTR SpiceOrder 7
PIN 368 96 RIGHT 8
PINATTR PinName SS2
PINATTR SpiceOrder 8
PIN 368 -96 RIGHT 8
PINATTR PinName VFB2
PINATTR SpiceOrder 9
PIN 368 0 RIGHT 8
PINATTR PinName Ith2
PINATTR SpiceOrder 10
PIN 368 -288 RIGHT 8
PINATTR PinName Sense2+
PINATTR SpiceOrder 11
PIN 368 -192 RIGHT 8
PINATTR PinName Sense2-
PINATTR SpiceOrder 12
PIN 368 192 RIGHT 8
PINATTR PinName Ilim2
PINATTR SpiceOrder 13
PIN 368 288 RIGHT 8
PINATTR PinName Pgood2
PINATTR SpiceOrder 14
PIN -368 288 LEFT 8
PINATTR PinName Pgood1
PINATTR SpiceOrder 15
PIN 368 -384 RIGHT 8
PINATTR PinName Gate2
PINATTR SpiceOrder 16
PIN 144 448 BOTTOM 8
PINATTR PinName PGND
PINATTR SpiceOrder 17
PIN -368 -384 LEFT 8
PINATTR PinName Gate1
PINATTR SpiceOrder 18
PIN 0 -448 TOP 8
PINATTR PinName DRVcc
PINATTR SpiceOrder 19
PIN -144 -448 TOP 8
PINATTR PinName Vin
PINATTR SpiceOrder 20
PIN -144 448 BOTTOM 8
PINATTR PinName SGND
PINATTR SpiceOrder 21
PIN 144 -448 TOP 8
PINATTR PinName INTVcc
PINATTR SpiceOrder 22
PIN -368 192 LEFT 8
PINATTR PinName Ilim1
PINATTR SpiceOrder 23
PIN -368 -192 LEFT 8
PINATTR PinName Sense1-
PINATTR SpiceOrder 24
PIN -368 -288 LEFT 8
PINATTR PinName Sense1+
PINATTR SpiceOrder 25
PIN 288 448 BOTTOM 8
PINATTR PinName Blank
PINATTR SpiceOrder 26
PIN 368 384 RIGHT 8
PINATTR PinName CLKOut
PINATTR SpiceOrder 27
PIN -368 384 LEFT 8
PINATTR PinName SYNC
PINATTR SpiceOrder 28
