Version 4
SymbolType CELL
RECTANGLE Normal -240 -592 224 592
TEXT 0 0 Center 2 LT
WINDOW 0 -11 -290 Center 2
WINDOW 3 -5 290 Center 2
SYMATTR Value LTC7810
SYMATTR Prefix X
SYMATTR SpiceModel LTC7810.sub
SYMATTR Value2 LTC7810
SYMATTR Description 150V Low Iq, Dual, 2-Phase Synchronous Step-Down DC/DC Controller\n\nNote: REGSD pin is not modeled.
PIN -240 48 LEFT 8
PINATTR PinName Sense1-
PINATTR SpiceOrder 1
PIN 48 592 BOTTOM 8
PINATTR PinName DRVset
PINATTR SpiceOrder 2
PIN -240 432 LEFT 8
PINATTR PinName INTVcc
PINATTR SpiceOrder 3
PIN 224 432 RIGHT 8
PINATTR PinName PLLin
PINATTR SpiceOrder 4
PIN 160 592 BOTTOM 8
PINATTR PinName SGND
PINATTR SpiceOrder 5
PIN 224 528 RIGHT 8
PINATTR PinName Mode
PINATTR SpiceOrder 8
PIN -64 592 BOTTOM 8
PINATTR PinName OVLO
PINATTR SpiceOrder 9
PIN -64 -592 TOP 8
PINATTR PinName NDRV
PINATTR SpiceOrder 10
PIN 160 -592 TOP 8
PINATTR PinName ExtVcc
PINATTR SpiceOrder 11
PIN 224 48 RIGHT 8
PINATTR PinName Sense2-
PINATTR SpiceOrder 12
PIN 224 -48 RIGHT 8
PINATTR PinName Sense2+
PINATTR SpiceOrder 13
PIN 224 144 RIGHT 8
PINATTR PinName FB2
PINATTR SpiceOrder 14
PIN 224 240 RIGHT 8
PINATTR PinName Ith2
PINATTR SpiceOrder 15
PIN 224 336 RIGHT 8
PINATTR PinName SS2
PINATTR SpiceOrder 16
PIN -240 528 LEFT 8
PINATTR PinName Freq
PINATTR SpiceOrder 17
PIN 224 -336 RIGHT 8
PINATTR PinName TG2
PINATTR SpiceOrder 19
PIN 224 -240 RIGHT 8
PINATTR PinName SW2
PINATTR SpiceOrder 20
PIN 224 -432 RIGHT 8
PINATTR PinName Boost2
PINATTR SpiceOrder 21
PIN 224 -144 RIGHT 8
PINATTR PinName BG2
PINATTR SpiceOrder 24
PIN -176 592 BOTTOM 8
PINATTR PinName PGND
PINATTR SpiceOrder 25
PIN 48 -592 TOP 8
PINATTR PinName DRVcc
PINATTR SpiceOrder 26
PIN 224 -528 RIGHT 8
PINATTR PinName Run2
PINATTR SpiceOrder 29
PIN -240 -528 LEFT 8
PINATTR PinName Run1
PINATTR SpiceOrder 32
PIN -176 -592 TOP 8
PINATTR PinName Vin
PINATTR SpiceOrder 35
PIN -240 -144 LEFT 8
PINATTR PinName BG1
PINATTR SpiceOrder 37
PIN -240 -432 LEFT 8
PINATTR PinName Boost1
PINATTR SpiceOrder 40
PIN -240 -240 LEFT 8
PINATTR PinName SW1
PINATTR SpiceOrder 41
PIN -240 -336 LEFT 8
PINATTR PinName TG1
PINATTR SpiceOrder 42
PIN -240 336 LEFT 8
PINATTR PinName SS1
PINATTR SpiceOrder 45
PIN -240 240 LEFT 8
PINATTR PinName Ith1
PINATTR SpiceOrder 46
PIN -240 144 LEFT 8
PINATTR PinName FB1
PINATTR SpiceOrder 47
PIN -240 -48 LEFT 8
PINATTR PinName Sense1+
PINATTR SpiceOrder 48
