Version 4
SymbolType CELL
RECTANGLE Normal -160 -257 160 255
TEXT 0 0 Center 2 LT
WINDOW 0 0 -48 Center 2
WINDOW 3 0 48 Center 2
SYMATTR Value LTC7060
SYMATTR Prefix X
SYMATTR SpiceModel LTC7060.sub
SYMATTR Value2 LTC7060
SYMATTR Description 100V Half Bridge Driver with Floating Grounds and Programmable Dead-Time
PIN -160 96 LEFT 8
PINATTR PinName PWM
PINATTR SpiceOrder 1
PIN -160 -96 LEFT 8
PINATTR PinName EN
PINATTR SpiceOrder 2
PIN -160 0 LEFT 8
PINATTR PinName _FLT
PINATTR SpiceOrder 3
PIN -160 192 LEFT 8
PINATTR PinName DT
PINATTR SpiceOrder 4
PIN 0 -256 TOP 8
PINATTR PinName Vcc
PINATTR SpiceOrder 5
PIN -160 -192 LEFT 8
PINATTR PinName BGVcc
PINATTR SpiceOrder 6
PIN 160 192 RIGHT 8
PINATTR PinName BGRTN
PINATTR SpiceOrder 7
PIN 160 96 RIGHT 8
PINATTR PinName BG
PINATTR SpiceOrder 8
PIN 160 0 RIGHT 8
PINATTR PinName SW
PINATTR SpiceOrder 9
PIN 160 -96 RIGHT 8
PINATTR PinName TG
PINATTR SpiceOrder 10
PIN 160 -192 RIGHT 8
PINATTR PinName BST
PINATTR SpiceOrder 11
PIN 0 256 BOTTOM 8
PINATTR PinName SGND
PINATTR SpiceOrder 12
