Version 4
SymbolType CELL
RECTANGLE Normal -240 -400 240 400
TEXT 0 0 Center 2 LT
WINDOW 0 0 -192 Center 2
WINDOW 3 1 192 Center 2
SYMATTR Value LTC7804
SYMATTR Prefix X
SYMATTR SpiceModel LTC7804.sub
SYMATTR Value2 LTC7804
SYMATTR Description Low Iq Synchronous Boost Controller
PIN 240 144 RIGHT 8
PINATTR PinName Sense-
PINATTR SpiceOrder 1
PIN -240 48 LEFT 8
PINATTR PinName Freq
PINATTR SpiceOrder 2
PIN -240 -336 LEFT 8
PINATTR PinName Vbias
PINATTR SpiceOrder 3
PIN -240 240 LEFT 8
PINATTR PinName Mode
PINATTR SpiceOrder 4
PIN -240 144 LEFT 8
PINATTR PinName PLLin/Spread
PINATTR SpiceOrder 5
PIN 0 400 BOTTOM 8
PINATTR PinName GND
PINATTR SpiceOrder 6
PIN -240 -240 LEFT 8
PINATTR PinName Run
PINATTR SpiceOrder 7
PIN -240 -144 LEFT 8
PINATTR PinName IntVcc
PINATTR SpiceOrder 8
PIN -240 -48 LEFT 8
PINATTR PinName ExtVcc
PINATTR SpiceOrder 9
PIN 240 -336 RIGHT 8
PINATTR PinName Boost
PINATTR SpiceOrder 10
PIN 240 -240 RIGHT 8
PINATTR PinName TG
PINATTR SpiceOrder 11
PIN 240 -144 RIGHT 8
PINATTR PinName SW
PINATTR SpiceOrder 12
PIN 240 -48 RIGHT 8
PINATTR PinName BG
PINATTR SpiceOrder 13
PIN 240 48 RIGHT 8
PINATTR PinName Sense+
PINATTR SpiceOrder 14
PIN 240 336 RIGHT 8
PINATTR PinName Ith
PINATTR SpiceOrder 15
PIN 240 240 RIGHT 8
PINATTR PinName FB
PINATTR SpiceOrder 16
PIN -240 336 LEFT 8
PINATTR PinName SS
PINATTR SpiceOrder 17
