Version 4
SymbolType CELL
RECTANGLE Normal -336 -864 320 896
TEXT 0 0 Center 2 LT
WINDOW 0 -5 -417 Center 2
WINDOW 3 -9 448 Center 2
SYMATTR Value LTC7852
SYMATTR Prefix X
SYMATTR SpiceModel LTC7852.sub
SYMATTR Value2 LTC7852
SYMATTR Description Dual Output, 6-Phase, Multiphase Current Mode Synchronous Controller with Current Monitoring
PIN -336 -512 LEFT 8
PINATTR PinName SNSavg4
PINATTR SpiceOrder 1
PIN -336 -608 LEFT 8
PINATTR PinName SNSp4
PINATTR SpiceOrder 2
PIN -336 -416 LEFT 8
PINATTR PinName SNSn4
PINATTR SpiceOrder 3
PIN -336 -128 LEFT 8
PINATTR PinName SNSavg5
PINATTR SpiceOrder 4
PIN -336 -224 LEFT 8
PINATTR PinName SNSp5
PINATTR SpiceOrder 5
PIN -336 -32 LEFT 8
PINATTR PinName SNSn5
PINATTR SpiceOrder 6
PIN -336 256 LEFT 8
PINATTR PinName SNSavg6
PINATTR SpiceOrder 7
PIN -336 160 LEFT 8
PINATTR PinName SNSp6
PINATTR SpiceOrder 8
PIN -336 352 LEFT 8
PINATTR PinName SNSn6
PINATTR SpiceOrder 9
PIN -336 -800 LEFT 8
PINATTR PinName PGood2
PINATTR SpiceOrder 10
PIN -336 736 LEFT 8
PINATTR PinName SS2
PINATTR SpiceOrder 11
PIN -336 640 LEFT 8
PINATTR PinName Ith2
PINATTR SpiceOrder 12
PIN -336 544 LEFT 8
PINATTR PinName Vosns2-
PINATTR SpiceOrder 13
PIN -336 448 LEFT 8
PINATTR PinName Vosns2+
PINATTR SpiceOrder 14
PIN 240 -864 TOP 8
PINATTR PinName Run2
PINATTR SpiceOrder 15
PIN -240 896 BOTTOM 8
PINATTR PinName Ilim2
PINATTR SpiceOrder 16
PIN -336 832 LEFT 8
PINATTR PinName Imon2
PINATTR SpiceOrder 17
PIN 48 896 BOTTOM 8
PINATTR PinName V1p5
PINATTR SpiceOrder 18
PIN 320 832 RIGHT 8
PINATTR PinName Imon1
PINATTR SpiceOrder 19
PIN 48 -864 TOP 8
PINATTR PinName Vcc
PINATTR SpiceOrder 20
PIN 144 896 BOTTOM 8
PINATTR PinName Phcfg
PINATTR SpiceOrder 21
PIN -144 896 BOTTOM 8
PINATTR PinName Freq
PINATTR SpiceOrder 22
PIN 240 896 BOTTOM 8
PINATTR PinName Ilim1
PINATTR SpiceOrder 23
PIN -240 -864 TOP 8
PINATTR PinName Run1
PINATTR SpiceOrder 24
PIN 320 448 RIGHT 8
PINATTR PinName Vosns1+
PINATTR SpiceOrder 25
PIN 320 544 RIGHT 8
PINATTR PinName Vosns1-
PINATTR SpiceOrder 26
PIN 320 640 RIGHT 8
PINATTR PinName Ith1
PINATTR SpiceOrder 27
PIN 320 736 RIGHT 8
PINATTR PinName SS1
PINATTR SpiceOrder 28
PIN 320 -800 RIGHT 8
PINATTR PinName PGood1
PINATTR SpiceOrder 29
PIN 320 -416 RIGHT 8
PINATTR PinName SNSn1
PINATTR SpiceOrder 30
PIN 320 -608 RIGHT 8
PINATTR PinName SNSp1
PINATTR SpiceOrder 31
PIN 320 -512 RIGHT 8
PINATTR PinName SNSavg1
PINATTR SpiceOrder 32
PIN 320 -32 RIGHT 8
PINATTR PinName SNSn2
PINATTR SpiceOrder 33
PIN 320 -224 RIGHT 8
PINATTR PinName SNSp2
PINATTR SpiceOrder 34
PIN 320 -128 RIGHT 8
PINATTR PinName SNSavg2
PINATTR SpiceOrder 35
PIN 320 352 RIGHT 8
PINATTR PinName SNSn3
PINATTR SpiceOrder 36
PIN 320 160 RIGHT 8
PINATTR PinName SNSp3
PINATTR SpiceOrder 37
PIN 320 256 RIGHT 8
PINATTR PinName SNSavg3
PINATTR SpiceOrder 38
PIN -48 -864 TOP 8
PINATTR PinName Vdd
PINATTR SpiceOrder 39
PIN 144 -864 TOP 8
PINATTR PinName Clkout
PINATTR SpiceOrder 40
PIN 320 -704 RIGHT 8
PINATTR PinName PWM1
PINATTR SpiceOrder 41
PIN 320 -320 RIGHT 8
PINATTR PinName PWM2
PINATTR SpiceOrder 42
PIN 320 64 RIGHT 8
PINATTR PinName PWM3
PINATTR SpiceOrder 43
PIN -336 -704 LEFT 8
PINATTR PinName PWM4
PINATTR SpiceOrder 44
PIN -336 -320 LEFT 8
PINATTR PinName PWM5
PINATTR SpiceOrder 45
PIN -336 64 LEFT 8
PINATTR PinName PWM6
PINATTR SpiceOrder 46
PIN -144 -864 TOP 8
PINATTR PinName Pllin
PINATTR SpiceOrder 47
PIN -48 896 BOTTOM 8
PINATTR PinName GND
PINATTR SpiceOrder 48
