Version 4
SymbolType CELL
RECTANGLE Normal 368 208 -352 -208
TEXT 0 0 Center 2 LT
WINDOW 0 0 -95 Center 2
WINDOW 3 1 97 Center 2
SYMATTR Value LTC7862
SYMATTR Prefix X
SYMATTR SpiceModel LTC7862.sub
SYMATTR Value2 LTC7862
SYMATTR Description 140V High Efficiency Switching Surge Stopper
PIN -160 -208 TOP 8
PINATTR PinName BG
PINATTR SpiceOrder 10
PIN -352 -48 LEFT 8
PINATTR PinName Run
PINATTR SpiceOrder 15
PIN 176 -208 TOP 8
PINATTR PinName Sense+
PINATTR SpiceOrder 19
PIN 288 -208 TOP 8
PINATTR PinName Sense-
PINATTR SpiceOrder 20
PIN 288 208 BOTTOM 8
PINATTR PinName Ith
PINATTR SpiceOrder 3
PIN 368 -144 RIGHT 8
PINATTR PinName ExtVcc
PINATTR SpiceOrder 14
PIN 368 -48 RIGHT 8
PINATTR PinName Vfb
PINATTR SpiceOrder 2
PIN -160 208 BOTTOM 8
PINATTR PinName SS
PINATTR SpiceOrder 1
PIN -48 208 BOTTOM 8
PINATTR PinName WarnB
PINATTR SpiceOrder 6
PIN 176 208 BOTTOM 8
PINATTR PinName TMR
PINATTR SpiceOrder 4
PIN -272 208 BOTTOM 8
PINATTR PinName Freq
PINATTR SpiceOrder 5
PIN 368 48 RIGHT 8
PINATTR PinName Ovlo
PINATTR SpiceOrder 18
PIN -352 144 LEFT 8
PINATTR PinName DrvUV
PINATTR SpiceOrder 16
PIN -352 48 LEFT 8
PINATTR PinName DrVcc
PINATTR SpiceOrder 12
PIN -272 -208 TOP 8
PINATTR PinName TG
PINATTR SpiceOrder 7
PIN -352 -144 LEFT 8
PINATTR PinName Vin
PINATTR SpiceOrder 13
PIN 368 144 RIGHT 8
PINATTR PinName Gnd
PINATTR SpiceOrder 11
PIN -48 -208 TOP 8
PINATTR PinName SW
PINATTR SpiceOrder 8
PIN 64 -208 TOP 8
PINATTR PinName Boost
PINATTR SpiceOrder 9
PIN 64 208 BOTTOM 8
PINATTR PinName IntVcc
PINATTR SpiceOrder 17
