Version 4
SymbolType CELL
RECTANGLE Normal -144 -336 144 336
TEXT 0 0 Center 2 LT
WINDOW 0 0 -144 Center 2
WINDOW 3 0 144 Center 2
SYMATTR Value LTC7050
SYMATTR Prefix X
SYMATTR Value2 LTC7050 RTon=5m RBon=1.2m  OV=14.8
SYMATTR Description Dual 30A Monolithic Driver and Half Bridge with Current Sense and Temperature Monitor
SYMATTR SpiceModel LTC7050.sub
PIN -144 -96 LEFT 8
PINATTR PinName Vcc
PINATTR SpiceOrder 1
PIN -144 0 LEFT 8
PINATTR PinName PWM1
PINATTR SpiceOrder 2
PIN -144 96 LEFT 8
PINATTR PinName Run1
PINATTR SpiceOrder 3
PIN 144 288 RIGHT 8
PINATTR PinName SGND
PINATTR SpiceOrder 4
PIN -144 192 LEFT 8
PINATTR PinName PWM2
PINATTR SpiceOrder 7
PIN -144 288 LEFT 8
PINATTR PinName Run2
PINATTR SpiceOrder 8
PIN -144 -192 LEFT 8
PINATTR PinName PVcc
PINATTR SpiceOrder 9
PIN -144 -288 LEFT 8
PINATTR PinName Vin
PINATTR SpiceOrder 10
PIN 144 -288 RIGHT 8
PINATTR PinName SW1
PINATTR SpiceOrder 11
PIN 0 336 BOTTOM 8
PINATTR PinName PGND
PINATTR SpiceOrder 12
PIN 144 -192 RIGHT 8
PINATTR PinName Isns1
PINATTR SpiceOrder 13
PIN 144 -96 RIGHT 8
PINATTR PinName Fltb1
PINATTR SpiceOrder 14
PIN 144 192 RIGHT 8
PINATTR PinName Fltb2
PINATTR SpiceOrder 15
PIN 144 96 RIGHT 8
PINATTR PinName Isns2
PINATTR SpiceOrder 16
PIN 144 0 RIGHT 8
PINATTR PinName SW2
PINATTR SpiceOrder 17
