Version 4
SymbolType CELL
RECTANGLE Normal -256 -976 256 992
TEXT 0 0 Center 2 LT
WINDOW 0 7 -524 Center 2
WINDOW 3 -4 622 Center 2
SYMATTR Value LTM4699
SYMATTR Prefix X
SYMATTR Description Dual Output  50A Polyphase Step-Down Power Supply Module with Digital Power System Management\n\nNote: SDA, SCL, _Alert, Share_clk, WP, GPIOs, ASEL, TSNSs are not modeled
SYMATTR ModelFile LTM4699.sub
SYMATTR SpiceLine VIN_ON=5.5 VIN_OFF=5 Vout_0=1.6 Vout_1=2.5 Ilim0_range=0 Ilim1_range=0 OC_limit0=1 OC_limit1=1 Mode_ll=1 Fault_response=0 Retry_delay=.1m gm0=3m gm1=3m Rth0=5K Rth1=5K Sync=0
SYMATTR SpiceLine2 Freq=500K PHs_0=0 PHs_1=180 Ton0_delay=.3m Ton0_rise=.5m Ton1_delay=.3m Ton1_rise=.5m Toff0_delay=.2m Toff0_fall=.3m Toff1_delay=.2m Toff1_fall=.3m Vout0_range=0 Vout1_range=0
PIN 256 -624 RIGHT 8
PINATTR PinName Vosns+_C0
PINATTR SpiceOrder 1
PIN 256 -528 RIGHT 8
PINATTR PinName Vosns-_C0
PINATTR SpiceOrder 2
PIN 256 48 RIGHT 8
PINATTR PinName VoutC1
PINATTR SpiceOrder 4
PIN 256 -336 RIGHT 8
PINATTR PinName Comp_C0a
PINATTR SpiceOrder 5
PIN 256 -432 RIGHT 8
PINATTR PinName Comp_C0b
PINATTR SpiceOrder 6
PIN 256 -720 RIGHT 8
PINATTR PinName VoutC0
PINATTR SpiceOrder 8
PIN 256 -144 RIGHT 8
PINATTR PinName Vtrim0_cfg
PINATTR SpiceOrder 9
PIN 256 624 RIGHT 8
PINATTR PinName Vtrim1_cfg
PINATTR SpiceOrder 10
PIN 96 992 BOTTOM 8
PINATTR PinName SYNC
PINATTR SpiceOrder 11
PIN 192 992 BOTTOM 8
PINATTR PinName Run_C0
PINATTR SpiceOrder 17
PIN -192 992 BOTTOM 8
PINATTR PinName Run_C1
PINATTR SpiceOrder 18
PIN 256 -240 RIGHT 8
PINATTR PinName Vout0_cfg
PINATTR SpiceOrder 21
PIN 256 528 RIGHT 8
PINATTR PinName Vout1_cfg
PINATTR SpiceOrder 22
PIN 256 720 RIGHT 8
PINATTR PinName Fswph_cfg
PINATTR SpiceOrder 24
PIN 0 -976 TOP 8
PINATTR PinName VDD25
PINATTR SpiceOrder 25
PIN -96 992 BOTTOM 8
PINATTR PinName VDD33
PINATTR SpiceOrder 28
PIN 256 336 RIGHT 8
PINATTR PinName Comp_C1b
PINATTR SpiceOrder 29
PIN 256 432 RIGHT 8
PINATTR PinName Comp_C1a
PINATTR SpiceOrder 30
PIN 256 240 RIGHT 8
PINATTR PinName Vosns-_C1
PINATTR SpiceOrder 31
PIN 256 144 RIGHT 8
PINATTR PinName Vosns+_C1
PINATTR SpiceOrder 32
PIN 256 912 RIGHT 8
PINATTR PinName PGood_C1
PINATTR SpiceOrder 33
PIN 256 -48 RIGHT 8
PINATTR PinName SW1
PINATTR SpiceOrder 34
PIN 256 816 RIGHT 8
PINATTR PinName IntVcc_C0_C1
PINATTR SpiceOrder 38
PIN 256 -912 RIGHT 8
PINATTR PinName Vin2_C0_C1
PINATTR SpiceOrder 39
PIN 192 -976 TOP 8
PINATTR PinName Vbias
PINATTR SpiceOrder 40
PIN 0 992 BOTTOM 8
PINATTR PinName PGND
PINATTR SpiceOrder 41
PIN 256 -816 RIGHT 8
PINATTR PinName SW0
PINATTR SpiceOrder 45
PIN -256 912 LEFT 8
PINATTR PinName PGood_C0
PINATTR SpiceOrder 48
PIN 96 -976 TOP 8
PINATTR PinName SGND
PINATTR SpiceOrder 49
PIN -96 -976 TOP 8
PINATTR PinName Runp
PINATTR SpiceOrder 51
PIN -192 -976 TOP 8
PINATTR PinName SVin
PINATTR SpiceOrder 52
PIN -256 -912 LEFT 8
PINATTR PinName VinS1
PINATTR SpiceOrder 16
PIN -256 -816 LEFT 8
PINATTR PinName Cfly+
PINATTR SpiceOrder 12
PIN -256 -720 LEFT 8
PINATTR PinName Mid
PINATTR SpiceOrder 13
PIN -256 -624 LEFT 8
PINATTR PinName Cfly-
PINATTR SpiceOrder 14
PIN -256 -528 LEFT 8
PINATTR PinName VoutS1
PINATTR SpiceOrder 44
PIN -256 -432 LEFT 8
PINATTR PinName ExtVccS1
PINATTR SpiceOrder 26
PIN -256 -336 LEFT 8
PINATTR PinName IntVccS1
PINATTR SpiceOrder 15
PIN -256 -240 LEFT 8
PINATTR PinName VfbS1
PINATTR SpiceOrder 35
PIN -256 -144 LEFT 8
PINATTR PinName CompaS1
PINATTR SpiceOrder 36
PIN -256 -48 LEFT 8
PINATTR PinName CompbS1
PINATTR SpiceOrder 46
PIN -256 48 LEFT 8
PINATTR PinName TrackS1
PINATTR SpiceOrder 37
PIN -256 144 LEFT 8
PINATTR PinName Mode_PLLinS1
PINATTR SpiceOrder 43
PIN -256 240 LEFT 8
PINATTR PinName ClkoutS1
PINATTR SpiceOrder 42
PIN -256 336 LEFT 8
PINATTR PinName RunS1
PINATTR SpiceOrder 27
PIN -256 432 LEFT 8
PINATTR PinName PgoodS1
PINATTR SpiceOrder 23
PIN -256 528 LEFT 8
PINATTR PinName _FaultS1
PINATTR SpiceOrder 20
PIN -256 624 LEFT 8
PINATTR PinName FreqS1
PINATTR SpiceOrder 3
PIN -256 720 LEFT 8
PINATTR PinName Hys_prgmS1
PINATTR SpiceOrder 7
PIN -256 816 LEFT 8
PINATTR PinName TimerS1
PINATTR SpiceOrder 19
