Version 4
SymbolType CELL
RECTANGLE Normal -512 -736 513 720
TEXT 0 0 Center 2 LT
WINDOW 0 5 -385 Center 2
WINDOW 3 0 368 Center 2
SYMATTR Value LTM4671
SYMATTR Prefix X
SYMATTR SpiceModel LTM4671.sub
SYMATTR Value2 LTM4671
SYMATTR Description Quad DC/DC µModule regulator with Configurable Dual 12A, Dual 5A Output Array
PIN -224 720 BOTTOM 8
PINATTR PinName Pgood1
PINATTR SpiceOrder 1
PIN -512 272 LEFT 8
PINATTR PinName Run1
PINATTR SpiceOrder 3
PIN 336 720 BOTTOM 8
PINATTR PinName Mode12
PINATTR SpiceOrder 4
PIN -448 720 BOTTOM 8
PINATTR PinName Freq12
PINATTR SpiceOrder 5
PIN 512 272 RIGHT 8
PINATTR PinName Run2
PINATTR SpiceOrder 6
PIN 224 720 BOTTOM 8
PINATTR PinName Pgood2
PINATTR SpiceOrder 8
PIN 512 560 RIGHT 8
PINATTR PinName FB2
PINATTR SpiceOrder 9
PIN 112 720 BOTTOM 8
PINATTR PinName SS2
PINATTR SpiceOrder 10
PIN 512 656 RIGHT 8
PINATTR PinName Comp2
PINATTR SpiceOrder 11
PIN 512 464 RIGHT 8
PINATTR PinName Vosns2
PINATTR SpiceOrder 17
PIN 512 368 RIGHT 8
PINATTR PinName Vout2
PINATTR SpiceOrder 13
PIN -336 720 BOTTOM 8
PINATTR PinName IntVcc12
PINATTR SpiceOrder 19
PIN -512 368 LEFT 8
PINATTR PinName Vout1
PINATTR SpiceOrder 23
PIN -512 464 LEFT 8
PINATTR PinName Vosns1
PINATTR SpiceOrder 20
PIN -512 656 LEFT 8
PINATTR PinName Comp1
PINATTR SpiceOrder 26
PIN -112 720 BOTTOM 8
PINATTR PinName SS1
PINATTR SpiceOrder 27
PIN -512 560 LEFT 8
PINATTR PinName FB1
PINATTR SpiceOrder 28
PIN 448 720 BOTTOM 8
PINATTR PinName GND
PINATTR SpiceOrder 7
PIN 0 -736 TOP 8
PINATTR PinName Vin
PINATTR SpiceOrder 21
PIN -512 -672 LEFT 8
PINATTR PinName Run0
PINATTR SpiceOrder 18
PIN 512 -672 RIGHT 8
PINATTR PinName Run3
PINATTR SpiceOrder 22
PIN 512 -288 RIGHT 8
PINATTR PinName FB3
PINATTR SpiceOrder 25
PIN 512 96 RIGHT 8
PINATTR PinName SS3
PINATTR SpiceOrder 39
PIN 512 -192 RIGHT 8
PINATTR PinName Comp3a
PINATTR SpiceOrder 41
PIN 512 -480 RIGHT 8
PINATTR PinName Vosns3+
PINATTR SpiceOrder 47
PIN 512 -576 RIGHT 8
PINATTR PinName Vout3
PINATTR SpiceOrder 48
PIN -512 -576 LEFT 8
PINATTR PinName Vout0
PINATTR SpiceOrder 12
PIN -512 -480 LEFT 8
PINATTR PinName Vosns0+
PINATTR SpiceOrder 2
PIN -512 -192 LEFT 8
PINATTR PinName Comp0a
PINATTR SpiceOrder 33
PIN -512 96 LEFT 8
PINATTR PinName SS0
PINATTR SpiceOrder 31
PIN -512 -288 LEFT 8
PINATTR PinName FB0
PINATTR SpiceOrder 24
PIN -512 0 LEFT 8
PINATTR PinName Clkout0
PINATTR SpiceOrder 36
PIN -512 176 LEFT 8
PINATTR PinName Freq0
PINATTR SpiceOrder 34
PIN 112 -736 TOP 8
PINATTR PinName Intvcc3
PINATTR SpiceOrder 15
PIN 512 -384 RIGHT 8
PINATTR PinName Vosns3-
PINATTR SpiceOrder 46
PIN -512 -384 LEFT 8
PINATTR PinName Vosns0-
PINATTR SpiceOrder 38
PIN 512 -96 RIGHT 8
PINATTR PinName Comp3b
PINATTR SpiceOrder 49
PIN -512 -96 LEFT 8
PINATTR PinName Comp0b
PINATTR SpiceOrder 14
PIN -112 -736 TOP 8
PINATTR PinName Intvcc0
PINATTR SpiceOrder 16
PIN 512 0 RIGHT 8
PINATTR PinName Clkout3
PINATTR SpiceOrder 44
PIN 512 176 RIGHT 8
PINATTR PinName Freq3
PINATTR SpiceOrder 42
PIN -224 -736 TOP 8
PINATTR PinName Mode0
PINATTR SpiceOrder 35
PIN -336 -736 TOP 8
PINATTR PinName Phmode0
PINATTR SpiceOrder 37
PIN -448 -736 TOP 8
PINATTR PinName Pgood0
PINATTR SpiceOrder 32
PIN 224 -736 TOP 8
PINATTR PinName Mode3
PINATTR SpiceOrder 43
PIN 336 -736 TOP 8
PINATTR PinName Phmode3
PINATTR SpiceOrder 45
PIN 448 -736 TOP 8
PINATTR PinName Pgood3
PINATTR SpiceOrder 40
