Version 4
SymbolType CELL
RECTANGLE Normal 161 224 -160 -192
TEXT 0 0 Center 2 LT
WINDOW 3 -3 79 Center 2
WINDOW 0 2 -64 Center 2
SYMATTR Value LTM4693
SYMATTR Prefix X
SYMATTR SpiceModel LTM4693.sub
SYMATTR Value2 LTM4693
SYMATTR Description 5A Low Noise, High Performance Buck-Boost DC/DC µModule Regulator
PIN -64 -192 TOP 8
PINATTR PinName SW1
PINATTR SpiceOrder 1
PIN 64 -192 TOP 8
PINATTR PinName SW2
PINATTR SpiceOrder 2
PIN 160 -128 RIGHT 8
PINATTR PinName Vout
PINATTR SpiceOrder 3
PIN -160 -32 LEFT 8
PINATTR PinName Run
PINATTR SpiceOrder 4
PIN -160 64 LEFT 8
PINATTR PinName SS
PINATTR SpiceOrder 5
PIN 160 160 RIGHT 8
PINATTR PinName Comp
PINATTR SpiceOrder 6
PIN 160 -32 RIGHT 8
PINATTR PinName FB
PINATTR SpiceOrder 7
PIN 0 224 BOTTOM 8
PINATTR PinName GND
PINATTR SpiceOrder 8
PIN 160 64 RIGHT 8
PINATTR PinName Rt
PINATTR SpiceOrder 9
PIN -160 -128 LEFT 8
PINATTR PinName Vin
PINATTR SpiceOrder 10
PIN -160 160 LEFT 8
PINATTR PinName Mode
PINATTR SpiceOrder 11
