Version 4
SymbolType CELL
RECTANGLE Normal -144 -400 144 400
TEXT 0 0 Center 2 LT
WINDOW 0 1 -191 Center 2
WINDOW 3 0 192 Center 2
SYMATTR Value LTM4668
SYMATTR Prefix X
SYMATTR SpiceModel LTM4668.sub
SYMATTR Value2 LTM4668
SYMATTR Description Tiny Quad Step-Down µModule™ Regulator
PIN -64 400 BOTTOM 8
PINATTR PinName Mode
PINATTR SpiceOrder 1
PIN 64 -400 TOP 8
PINATTR PinName INTVcc
PINATTR SpiceOrder 2
PIN -144 -336 LEFT 8
PINATTR PinName Run1
PINATTR SpiceOrder 4
PIN -144 48 LEFT 8
PINATTR PinName Run2
PINATTR SpiceOrder 5
PIN 144 -336 RIGHT 8
PINATTR PinName Run3
PINATTR SpiceOrder 6
PIN 144 48 RIGHT 8
PINATTR PinName Run4
PINATTR SpiceOrder 7
PIN 64 400 BOTTOM 8
PINATTR PinName GND
PINATTR SpiceOrder 8
PIN -144 -240 LEFT 8
PINATTR PinName Vout1
PINATTR SpiceOrder 11
PIN -144 -144 LEFT 8
PINATTR PinName FB1
PINATTR SpiceOrder 12
PIN -144 144 LEFT 8
PINATTR PinName Vout2
PINATTR SpiceOrder 13
PIN -144 240 LEFT 8
PINATTR PinName FB2
PINATTR SpiceOrder 14
PIN 144 -240 RIGHT 8
PINATTR PinName Vout3
PINATTR SpiceOrder 15
PIN 144 -144 RIGHT 8
PINATTR PinName FB3
PINATTR SpiceOrder 16
PIN 144 144 RIGHT 8
PINATTR PinName Vout4
PINATTR SpiceOrder 17
PIN 144 240 RIGHT 8
PINATTR PinName FB4
PINATTR SpiceOrder 18
PIN -144 -48 LEFT 8
PINATTR PinName Pgood1
PINATTR SpiceOrder 19
PIN -144 336 LEFT 8
PINATTR PinName Pgood2
PINATTR SpiceOrder 20
PIN 144 336 RIGHT 8
PINATTR PinName Pgood4
PINATTR SpiceOrder 21
PIN 144 -48 RIGHT 8
PINATTR PinName Pgood3
PINATTR SpiceOrder 22
PIN -64 -400 TOP 8
PINATTR PinName Vin
PINATTR SpiceOrder 23