Version 4
SymbolType CELL
RECTANGLE Normal 960 560 -944 -560
TEXT 0 0 Center 2 LT
WINDOW 3 13 293 Center 2
WINDOW 0 12 -288 Center 2
SYMATTR Value LTM4655
SYMATTR Prefix X
SYMATTR SpiceModel LTM4655.sub
SYMATTR Value2 LTM4655
SYMATTR Description 60V EMI Compliant Split-Supply DC/DC Regulator
PIN 960 -96 RIGHT 8
PINATTR PinName Vout1-
PINATTR SpiceOrder 1
PIN -944 -288 LEFT 8
PINATTR PinName SVINF1
PINATTR SpiceOrder 2
PIN -944 -384 LEFT 8
PINATTR PinName VD1
PINATTR SpiceOrder 3
PIN -944 -192 LEFT 8
PINATTR PinName SVIN1
PINATTR SpiceOrder 4
PIN -944 -96 LEFT 8
PINATTR PinName Run1
PINATTR SpiceOrder 5
PIN 960 480 RIGHT 8
PINATTR PinName GND
PINATTR SpiceOrder 6
PIN -272 -560 TOP 8
PINATTR PinName Clkin1
PINATTR SpiceOrder 7
PIN -496 -560 TOP 8
PINATTR PinName Pgood1
PINATTR SpiceOrder 8
PIN 624 -560 TOP 8
PINATTR PinName PGDFB1
PINATTR SpiceOrder 9
PIN 848 -560 TOP 8
PINATTR PinName Imon1a
PINATTR SpiceOrder 10
PIN -832 -560 TOP 8
PINATTR PinName Vinreg1
PINATTR SpiceOrder 11
PIN -384 -560 TOP 8
PINATTR PinName Freq1
PINATTR SpiceOrder 12
PIN 960 -288 RIGHT 8
PINATTR PinName Vosns1+
PINATTR SpiceOrder 13
PIN 400 -560 TOP 8
PINATTR PinName Iset1a
PINATTR SpiceOrder 14
PIN 176 -560 TOP 8
PINATTR PinName Ith1a
PINATTR SpiceOrder 15
PIN -608 -560 TOP 8
PINATTR PinName Extvcc1
PINATTR SpiceOrder 16
PIN -720 -560 TOP 8
PINATTR PinName Intvcc1
PINATTR SpiceOrder 17
PIN -944 -480 LEFT 8
PINATTR PinName Vin1
PINATTR SpiceOrder 18
PIN 960 -480 RIGHT 8
PINATTR PinName SW1
PINATTR SpiceOrder 19
PIN 512 -560 TOP 8
PINATTR PinName Iset1b
PINATTR SpiceOrder 20
PIN 288 -560 TOP 8
PINATTR PinName Ith1b
PINATTR SpiceOrder 21
PIN 960 -384 RIGHT 8
PINATTR PinName Vout1+
PINATTR SpiceOrder 22
PIN 960 -192 RIGHT 8
PINATTR PinName Vosns1-
PINATTR SpiceOrder 23
PIN 736 -560 TOP 8
PINATTR PinName Imon1b
PINATTR SpiceOrder 24
PIN -48 -560 TOP 8
PINATTR PinName +5V
PINATTR SpiceOrder 25
PIN 64 -560 TOP 8
PINATTR PinName Clkset
PINATTR SpiceOrder 26
PIN -944 288 LEFT 8
PINATTR PinName VD2
PINATTR SpiceOrder 27
PIN -272 560 BOTTOM 8
PINATTR PinName Clkin2
PINATTR SpiceOrder 28
PIN -944 0 LEFT 8
PINATTR PinName Run2
PINATTR SpiceOrder 30
PIN -720 560 BOTTOM 8
PINATTR PinName Intvcc2
PINATTR SpiceOrder 31
PIN 960 384 RIGHT 8
PINATTR PinName Vout2-
PINATTR SpiceOrder 32
PIN 960 0 RIGHT 8
PINATTR PinName SW2
PINATTR SpiceOrder 33
PIN 960 192 RIGHT 8
PINATTR PinName Vosns2+
PINATTR SpiceOrder 34
PIN -496 560 BOTTOM 8
PINATTR PinName Pgood2
PINATTR SpiceOrder 35
PIN -608 560 BOTTOM 8
PINATTR PinName Extvcc2
PINATTR SpiceOrder 36
PIN -384 560 BOTTOM 8
PINATTR PinName Freq2
PINATTR SpiceOrder 37
PIN 400 560 BOTTOM 8
PINATTR PinName Iset2a
PINATTR SpiceOrder 38
PIN 160 560 BOTTOM 8
PINATTR PinName Ith2a
PINATTR SpiceOrder 39
PIN 736 560 BOTTOM 8
PINATTR PinName Imon2a
PINATTR SpiceOrder 40
PIN -832 560 BOTTOM 8
PINATTR PinName Vinreg2
PINATTR SpiceOrder 41
PIN 624 560 BOTTOM 8
PINATTR PinName PGDFB2
PINATTR SpiceOrder 42
PIN -944 192 LEFT 8
PINATTR PinName SVINF2
PINATTR SpiceOrder 43
PIN -944 96 LEFT 8
PINATTR PinName SVIN2
PINATTR SpiceOrder 44
PIN -944 384 LEFT 8
PINATTR PinName Vin2
PINATTR SpiceOrder 45
PIN 512 560 BOTTOM 8
PINATTR PinName Iset2b
PINATTR SpiceOrder 46
PIN 288 560 BOTTOM 8
PINATTR PinName Ith2b
PINATTR SpiceOrder 47
PIN 960 96 RIGHT 8
PINATTR PinName Vout2+
PINATTR SpiceOrder 48
PIN 960 288 RIGHT 8
PINATTR PinName Vosns2-
PINATTR SpiceOrder 49
PIN 848 560 BOTTOM 8
PINATTR PinName Imon2b
PINATTR SpiceOrder 50
PIN -160 -560 TOP 8
PINATTR PinName Clkout1
PINATTR SpiceOrder 51
PIN -128 560 BOTTOM 8
PINATTR PinName Clkout2
PINATTR SpiceOrder 52
PIN 16 560 BOTTOM 8
PINATTR PinName Mod
PINATTR SpiceOrder 53
PIN -944 480 LEFT 8
PINATTR PinName LDO_IN
PINATTR SpiceOrder 54
