Version 4
SymbolType CELL
RECTANGLE Normal -304 -336 288 480
TEXT -1 0 Center 2 ADI
WINDOW 0 -1 -169 Center 2
WINDOW 3 -1 152 Center 2
SYMATTR Value LTM4663
SYMATTR Prefix X
SYMATTR SpiceModel LTM4663.sub
SYMATTR Value2 LTM4663
SYMATTR Description Ultrathin 1.5A μModule Thermoelectric Cooler (TEC) Regulator\n\n Average Model
PIN 288 416 RIGHT 8
PINATTR PinName GNDP
PINATTR SpiceOrder 1
PIN 288 320 RIGHT 8
PINATTR PinName VPWM
PINATTR SpiceOrder 2
PIN -304 128 LEFT 8
PINATTR PinName Tampout
PINATTR SpiceOrder 3
PIN -304 -64 LEFT 8
PINATTR PinName NC
PINATTR SpiceOrder 4
PIN -304 224 LEFT 8
PINATTR PinName TSET
PINATTR SpiceOrder 5
PIN 288 32 RIGHT 8
PINATTR PinName VLDR
PINATTR SpiceOrder 6
PIN -304 32 LEFT 8
PINATTR PinName TFB
PINATTR SpiceOrder 7
PIN -304 320 LEFT 8
PINATTR PinName Pampn
PINATTR SpiceOrder 8
PIN -304 -256 LEFT 8
PINATTR PinName VLIM/SD
PINATTR SpiceOrder 9
PIN -160 -336 TOP 8
PINATTR PinName VREF
PINATTR SpiceOrder 10
PIN -128 480 BOTTOM 8
PINATTR PinName GNDA
PINATTR SpiceOrder 11
PIN 288 -64 RIGHT 8
PINATTR PinName PVIN
PINATTR SpiceOrder 12
PIN 160 -336 TOP 8
PINATTR PinName ITEC
PINATTR SpiceOrder 13
PIN -304 416 LEFT 8
PINATTR PinName Pampout
PINATTR SpiceOrder 14
PIN -304 -160 LEFT 8
PINATTR PinName ILIM
PINATTR SpiceOrder 15
PIN 288 128 RIGHT 8
PINATTR PinName SW
PINATTR SpiceOrder 16
PIN 0 -336 TOP 8
PINATTR PinName VTEC
PINATTR SpiceOrder 17
PIN 288 -256 RIGHT 8
PINATTR PinName EN/SY
PINATTR SpiceOrder 18
PIN 288 -160 RIGHT 8
PINATTR PinName SVIN
PINATTR SpiceOrder 19
PIN 112 480 BOTTOM 8
PINATTR PinName GNDL
PINATTR SpiceOrder 20
PIN 288 224 RIGHT 8
PINATTR PinName SFB
PINATTR SpiceOrder 21