Version 4
SymbolType CELL
RECTANGLE Normal -160 -240 160 304
TEXT 0 0 Center 2 LT
WINDOW 0 0 -96 Center 2
WINDOW 3 0 96 Center 2
SYMATTR Value LTM4691
SYMATTR Prefix X
SYMATTR SpiceModel LTM4691.sub
SYMATTR Value2 LTM4691
SYMATTR Description Low Vin, High Efficiency, Dual 2A Step-Down DC/DC uModule Regulator
PIN -160 -192 LEFT 8
PINATTR PinName Vin1
PINATTR SpiceOrder 1
PIN -160 -80 LEFT 8
PINATTR PinName Run1
PINATTR SpiceOrder 2
PIN 160 -80 RIGHT 8
PINATTR PinName Vout1
PINATTR SpiceOrder 3
PIN 160 32 RIGHT 8
PINATTR PinName FB1
PINATTR SpiceOrder 4
PIN 0 304 BOTTOM 8
PINATTR PinName GND
PINATTR SpiceOrder 5
PIN -160 32 LEFT 8
PINATTR PinName Vin2
PINATTR SpiceOrder 6
PIN -160 144 LEFT 8
PINATTR PinName Run2
PINATTR SpiceOrder 7
PIN 160 -192 RIGHT 8
PINATTR PinName Pgood
PINATTR SpiceOrder 8
PIN -160 256 LEFT 8
PINATTR PinName Mode
PINATTR SpiceOrder 9
PIN 160 144 RIGHT 8
PINATTR PinName Vout2
PINATTR SpiceOrder 10
PIN 160 256 RIGHT 8
PINATTR PinName FB2
PINATTR SpiceOrder 11
