Version 4
SymbolType CELL
RECTANGLE Normal -144 -208 144 208
TEXT 0 0 Center 2 LT
WINDOW 0 0 -96 Center 2
WINDOW 3 0 97 Center 2
SYMATTR Value LTM4661
SYMATTR Prefix X
SYMATTR SpiceModel LTM4661.sub
SYMATTR Value2 LTM4661
SYMATTR Description 15V, 4A Step-Up µModule Regulator
PIN -144 -144 LEFT 8
PINATTR PinName Vin
PINATTR SpiceOrder 5
PIN -144 48 LEFT 8
PINATTR PinName Mode
PINATTR SpiceOrder 6
PIN -144 144 LEFT 8
PINATTR PinName IntVcc
PINATTR SpiceOrder 7
PIN 144 144 RIGHT 8
PINATTR PinName Freq
PINATTR SpiceOrder 8
PIN 144 48 RIGHT 8
PINATTR PinName Comp
PINATTR SpiceOrder 9
PIN 144 -48 RIGHT 8
PINATTR PinName FB
PINATTR SpiceOrder 10
PIN -144 -48 LEFT 8
PINATTR PinName _SD
PINATTR SpiceOrder 11
PIN 0 208 BOTTOM 8
PINATTR PinName Gnd
PINATTR SpiceOrder 12
PIN 144 -144 RIGHT 8
PINATTR PinName Vout
PINATTR SpiceOrder 13
