Version 4
SymbolType CELL
RECTANGLE Normal -191 -432 192 433
TEXT 0 0 Center 2 LT
WINDOW 0 0 -192 Center 2
WINDOW 3 0 192 Center 2
SYMATTR Value LTM4656
SYMATTR Prefix X
SYMATTR SpiceModel LTM4656.sub
SYMATTR Value2 LTM4656
SYMATTR Description Synchronous Boost uModule Regulator with Short Protection
PIN 192 192 RIGHT 8
PINATTR PinName Freq
PINATTR SpiceOrder 11
PIN -192 0 LEFT 8
PINATTR PinName Vout
PINATTR SpiceOrder 14
PIN 192 368 RIGHT 8
PINATTR PinName COMP
PINATTR SpiceOrder 13
PIN -192 368 LEFT 8
PINATTR PinName GND
PINATTR SpiceOrder 18
PIN -192 -96 LEFT 8
PINATTR PinName FLT
PINATTR SpiceOrder 4
PIN -192 288 LEFT 8
PINATTR PinName Temp-
PINATTR SpiceOrder 17
PIN 192 -384 RIGHT 8
PINATTR PinName Run
PINATTR SpiceOrder 5
PIN -192 -384 LEFT 8
PINATTR PinName Vin
PINATTR SpiceOrder 1
PIN -192 -288 LEFT 8
PINATTR PinName UV
PINATTR SpiceOrder 2
PIN 192 0 RIGHT 8
PINATTR PinName Pgood
PINATTR SpiceOrder 9
PIN 192 -192 RIGHT 8
PINATTR PinName INTVcc
PINATTR SpiceOrder 7
PIN 192 -288 RIGHT 8
PINATTR PinName BVIN
PINATTR SpiceOrder 6
PIN 192 -96 RIGHT 8
PINATTR PinName Vbias
PINATTR SpiceOrder 8
PIN -192 -192 LEFT 8
PINATTR PinName Timer
PINATTR SpiceOrder 3
PIN -192 96 LEFT 8
PINATTR PinName Vfb
PINATTR SpiceOrder 15
PIN -192 192 LEFT 8
PINATTR PinName Temp+
PINATTR SpiceOrder 16
PIN 192 288 RIGHT 8
PINATTR PinName SS
PINATTR SpiceOrder 12
PIN 192 96 RIGHT 8
PINATTR PinName PLLin/Mode
PINATTR SpiceOrder 10
