Version 4
SymbolType CELL
RECTANGLE Normal 224 496 -224 -576
TEXT 0 0 Center 2 LT
WINDOW 3 0 192 Center 2
WINDOW 0 0 -192 Center 2
SYMATTR Value LTM4653
SYMATTR Prefix X
SYMATTR SpiceModel LTM4653.sub
SYMATTR Value2 LTM4653
SYMATTR Description EN55022B Compliant 58V, 4A Step-Down DC/DC µModule Regulator
PIN 128 496 BOTTOM 8
PINATTR PinName PGND
PINATTR SpiceOrder 1
PIN 224 -528 RIGHT 8
PINATTR PinName Vout
PINATTR SpiceOrder 2
PIN -224 -336 LEFT 8
PINATTR PinName Vd
PINATTR SpiceOrder 3
PIN -224 -528 LEFT 8
PINATTR PinName Vin
PINATTR SpiceOrder 4
PIN -224 -240 LEFT 8
PINATTR PinName Run
PINATTR SpiceOrder 5
PIN -128 496 BOTTOM 8
PINATTR PinName SGND
PINATTR SpiceOrder 6
PIN -224 144 LEFT 8
PINATTR PinName Clkin
PINATTR SpiceOrder 7
PIN 224 -240 RIGHT 8
PINATTR PinName Pgood
PINATTR SpiceOrder 8
PIN 224 -144 RIGHT 8
PINATTR PinName PGDFB
PINATTR SpiceOrder 9
PIN 224 -48 RIGHT 8
PINATTR PinName IMONa
PINATTR SpiceOrder 10
PIN -224 -48 LEFT 8
PINATTR PinName VinReg
PINATTR SpiceOrder 11
PIN -224 240 LEFT 8
PINATTR PinName Fset
PINATTR SpiceOrder 12
PIN 224 -432 RIGHT 8
PINATTR PinName Vosns
PINATTR SpiceOrder 13
PIN 224 240 RIGHT 8
PINATTR PinName ISETa
PINATTR SpiceOrder 14
PIN -224 336 LEFT 8
PINATTR PinName COMPa
PINATTR SpiceOrder 15
PIN -224 48 LEFT 8
PINATTR PinName ExtVcc
PINATTR SpiceOrder 16
PIN -224 -144 LEFT 8
PINATTR PinName IntVcc
PINATTR SpiceOrder 17
PIN -224 432 LEFT 8
PINATTR PinName COMPb
PINATTR SpiceOrder 18
PIN 224 -336 RIGHT 8
PINATTR PinName SW
PINATTR SpiceOrder 19
PIN 224 144 RIGHT 8
PINATTR PinName ISETb
PINATTR SpiceOrder 20
PIN 224 48 RIGHT 8
PINATTR PinName IMONb
PINATTR SpiceOrder 21
PIN 224 336 RIGHT 8
PINATTR PinName TEMP+
PINATTR SpiceOrder 22
PIN 224 432 RIGHT 8
PINATTR PinName TEMP-
PINATTR SpiceOrder 23
PIN -224 -432 LEFT 8
PINATTR PinName SVin
PINATTR SpiceOrder 24
PIN 0 496 BOTTOM 8
PINATTR PinName GND
PINATTR SpiceOrder 25
