Version 4
SymbolType CELL
RECTANGLE Normal 176 240 -176 -256
TEXT 0 0 Center 2 LT
WINDOW 3 0 72 Center 2
WINDOW 0 0 -88 Center 2
SYMATTR Value LTM4701
SYMATTR Prefix X
SYMATTR SpiceModel LTM4701.sub
SYMATTR Value2 LTM4701
SYMATTR Description 20Vin 10A μModule Regulator
PIN -176 112 LEFT 8
PINATTR PinName Freq
PINATTR SpiceOrder 1
PIN -176 32 LEFT 8
PINATTR PinName PhMode
PINATTR SpiceOrder 2
PIN 176 192 RIGHT 8
PINATTR PinName Rgnd
PINATTR SpiceOrder 3
PIN 176 112 RIGHT 8
PINATTR PinName FB
PINATTR SpiceOrder 4
PIN -176 -128 LEFT 8
PINATTR PinName Track
PINATTR SpiceOrder 5
PIN 0 240 BOTTOM 8
PINATTR PinName Comp
PINATTR SpiceOrder 6
PIN -176 -208 LEFT 8
PINATTR PinName Run
PINATTR SpiceOrder 7
PIN 176 -208 RIGHT 8
PINATTR PinName Pgood
PINATTR SpiceOrder 8
PIN -176 192 LEFT 8
PINATTR PinName Gnd
PINATTR SpiceOrder 10
PIN 176 -48 RIGHT 8
PINATTR PinName SW
PINATTR SpiceOrder 11
PIN 176 32 RIGHT 8
PINATTR PinName Vout
PINATTR SpiceOrder 12
PIN 64 -256 TOP 8
PINATTR PinName Vin
PINATTR SpiceOrder 17
PIN -64 -256 TOP 8
PINATTR PinName SVin
PINATTR SpiceOrder 19
PIN 176 -128 RIGHT 8
PINATTR PinName INTVcc
PINATTR SpiceOrder 21
PIN -176 -48 LEFT 8
PINATTR PinName Mode
PINATTR SpiceOrder 24