Version 4
SymbolType CELL
RECTANGLE Normal 272 655 -272 -656
TEXT 0 0 Center 2 LT
TEXT 6 289 Center 2 LTM8051
SYMATTR Prefix X
SYMATTR SpiceModel LTM8051.sub
SYMATTR Value LTM8051
SYMATTR Value2 LTM8051
SYMATTR Description Quad 40VIN Silent Switcher μModule Regulator with Configurable 1.2A Output Array
PIN 272 -576 RIGHT 8
PINATTR PinName Vin23
PINATTR SpiceOrder 1
PIN 272 -192 RIGHT 8
PINATTR PinName Vout2
PINATTR SpiceOrder 2
PIN -272 288 LEFT 8
PINATTR PinName PG4
PINATTR SpiceOrder 3
PIN -272 -288 LEFT 8
PINATTR PinName PG1
PINATTR SpiceOrder 4
PIN -272 -96 LEFT 8
PINATTR PinName Sync14
PINATTR SpiceOrder 5
PIN -272 96 LEFT 8
PINATTR PinName Clkout14
PINATTR SpiceOrder 6
PIN -272 -192 LEFT 8
PINATTR PinName Vout1
PINATTR SpiceOrder 7
PIN -272 192 LEFT 8
PINATTR PinName Vout4
PINATTR SpiceOrder 8
PIN -96 -656 TOP 8
PINATTR PinName Vcc14
PINATTR SpiceOrder 9
PIN -272 0 LEFT 8
PINATTR PinName Bias14
PINATTR SpiceOrder 10
PIN -96 656 BOTTOM 8
PINATTR PinName Share14
PINATTR SpiceOrder 11
PIN -272 -384 LEFT 8
PINATTR PinName FB1
PINATTR SpiceOrder 12
PIN -272 -480 LEFT 8
PINATTR PinName SS1
PINATTR SpiceOrder 13
PIN -272 480 LEFT 8
PINATTR PinName SS4
PINATTR SpiceOrder 14
PIN -272 384 LEFT 8
PINATTR PinName FB4
PINATTR SpiceOrder 15
PIN 272 0 RIGHT 8
PINATTR PinName Bias23
PINATTR SpiceOrder 16
PIN -192 656 BOTTOM 8
PINATTR PinName Rt14
PINATTR SpiceOrder 17
PIN -192 -656 TOP 8
PINATTR PinName Run14
PINATTR SpiceOrder 18
PIN -272 -576 LEFT 8
PINATTR PinName Vin1
PINATTR SpiceOrder 19
PIN -272 576 LEFT 8
PINATTR PinName Vin4
PINATTR SpiceOrder 20
PIN 272 576 RIGHT 8
PINATTR PinName Gnd
PINATTR SpiceOrder 21
PIN 96 -656 TOP 8
PINATTR PinName Vcc23
PINATTR SpiceOrder 22
PIN 96 656 BOTTOM 8
PINATTR PinName Share23
PINATTR SpiceOrder 23
PIN 272 -480 RIGHT 8
PINATTR PinName SS2
PINATTR SpiceOrder 24
PIN 192 656 BOTTOM 8
PINATTR PinName Rt23
PINATTR SpiceOrder 25
PIN 272 -96 RIGHT 8
PINATTR PinName Sync23
PINATTR SpiceOrder 28
PIN 272 -384 RIGHT 8
PINATTR PinName FB2
PINATTR SpiceOrder 29
PIN 192 -656 TOP 8
PINATTR PinName Run23
PINATTR SpiceOrder 30
PIN 272 96 RIGHT 8
PINATTR PinName Clkout23
PINATTR SpiceOrder 31
PIN 272 192 RIGHT 8
PINATTR PinName Vout3
PINATTR SpiceOrder 32
PIN 272 480 RIGHT 8
PINATTR PinName SS3
PINATTR SpiceOrder 33
PIN 272 384 RIGHT 8
PINATTR PinName FB3
PINATTR SpiceOrder 34
PIN 272 288 RIGHT 8
PINATTR PinName PG3
PINATTR SpiceOrder 35
PIN 272 -288 RIGHT 8
PINATTR PinName PG2
PINATTR SpiceOrder 36
