Version 4
SymbolType CELL
RECTANGLE Normal -144 -208 144 208
TEXT 0 0 Center 2 LT
WINDOW 0 0 -96 Center 2
WINDOW 3 -1 95 Center 2
SYMATTR Value LTM8071
SYMATTR Prefix X
SYMATTR SpiceModel LTM8071.sub
SYMATTR Value2 LTM8071
SYMATTR Description 60Vin, 5A Silent Switcher µModule Regulator
PIN 144 48 RIGHT 8
PINATTR PinName Bias
PINATTR SpiceOrder 1
PIN 144 -48 RIGHT 8
PINATTR PinName Aux
PINATTR SpiceOrder 2
PIN -144 -144 LEFT 8
PINATTR PinName Vin
PINATTR SpiceOrder 4
PIN 144 -144 RIGHT 8
PINATTR PinName Vout
PINATTR SpiceOrder 8
PIN -48 -208 TOP 8
PINATTR PinName Run
PINATTR SpiceOrder 14
PIN -144 48 LEFT 8
PINATTR PinName Rt
PINATTR SpiceOrder 15
PIN -144 144 LEFT 8
PINATTR PinName TR/SS
PINATTR SpiceOrder 16
PIN -144 -48 LEFT 8
PINATTR PinName Sync
PINATTR SpiceOrder 17
PIN -48 208 BOTTOM 8
PINATTR PinName GND
PINATTR SpiceOrder 18
PIN 48 -208 TOP 8
PINATTR PinName PG
PINATTR SpiceOrder 19
PIN 144 144 RIGHT 8
PINATTR PinName FB
PINATTR SpiceOrder 20
PIN 48 208 BOTTOM 8
PINATTR PinName Share
PINATTR SpiceOrder 30
