Version 4
SymbolType CELL
RECTANGLE Normal -240 -800 240 800
TEXT 1 -1 Center 2 LT
WINDOW 0 1 -145 Center 2
WINDOW 3 0 142 Center 2
SYMATTR Value LTM8060
SYMATTR Prefix X
SYMATTR SpiceModel LTM8060.sub
SYMATTR Value2 LTM8060
SYMATTR Description Quad 40V, 3A Step-Down Silent Switcher uModule Regulator
PIN -144 -800 TOP 8
PINATTR PinName Vin1
PINATTR SpiceOrder 1
PIN -16 -800 TOP 8
PINATTR PinName Vin2
PINATTR SpiceOrder 2
PIN 112 -800 TOP 8
PINATTR PinName Vin34
PINATTR SpiceOrder 3
PIN -240 -736 LEFT 8
PINATTR PinName Run1
PINATTR SpiceOrder 4
PIN 240 -736 RIGHT 8
PINATTR PinName Run2
PINATTR SpiceOrder 5
PIN -240 32 LEFT 8
PINATTR PinName Run3
PINATTR SpiceOrder 6
PIN 240 32 RIGHT 8
PINATTR PinName Run4
PINATTR SpiceOrder 7
PIN -240 -640 LEFT 8
PINATTR PinName Vout1
PINATTR SpiceOrder 8
PIN 240 -640 RIGHT 8
PINATTR PinName Vout2
PINATTR SpiceOrder 9
PIN -240 128 LEFT 8
PINATTR PinName Vout3
PINATTR SpiceOrder 10
PIN 240 128 RIGHT 8
PINATTR PinName Vout4
PINATTR SpiceOrder 11
PIN -240 -544 LEFT 8
PINATTR PinName FB1
PINATTR SpiceOrder 12
PIN 240 -544 RIGHT 8
PINATTR PinName FB2
PINATTR SpiceOrder 13
PIN -240 224 LEFT 8
PINATTR PinName FB3
PINATTR SpiceOrder 14
PIN 240 224 RIGHT 8
PINATTR PinName FB4
PINATTR SpiceOrder 15
PIN -240 -160 LEFT 8
PINATTR PinName PG1
PINATTR SpiceOrder 16
PIN 240 -160 RIGHT 8
PINATTR PinName PG2
PINATTR SpiceOrder 17
PIN -240 608 LEFT 8
PINATTR PinName PG3
PINATTR SpiceOrder 18
PIN 240 608 RIGHT 8
PINATTR PinName PG4
PINATTR SpiceOrder 19
PIN -240 -64 LEFT 8
PINATTR PinName Rt12
PINATTR SpiceOrder 20
PIN -240 704 LEFT 8
PINATTR PinName Rt34
PINATTR SpiceOrder 21
PIN 240 -256 RIGHT 8
PINATTR PinName Bias12
PINATTR SpiceOrder 22
PIN 240 512 RIGHT 8
PINATTR PinName Bias34
PINATTR SpiceOrder 23
PIN -240 -352 LEFT 8
PINATTR PinName TRSS1
PINATTR SpiceOrder 24
PIN 240 -352 RIGHT 8
PINATTR PinName TRSS2
PINATTR SpiceOrder 25
PIN -240 416 LEFT 8
PINATTR PinName TRSS3
PINATTR SpiceOrder 26
PIN 240 416 RIGHT 8
PINATTR PinName TRSS4
PINATTR SpiceOrder 27
PIN -240 -448 LEFT 8
PINATTR PinName Share1
PINATTR SpiceOrder 28
PIN 240 -448 RIGHT 8
PINATTR PinName Share2
PINATTR SpiceOrder 29
PIN -240 320 LEFT 8
PINATTR PinName Share3
PINATTR SpiceOrder 30
PIN 240 320 RIGHT 8
PINATTR PinName Share4
PINATTR SpiceOrder 31
PIN -240 -256 LEFT 8
PINATTR PinName Sync12
PINATTR SpiceOrder 32
PIN -240 512 LEFT 8
PINATTR PinName Sync34
PINATTR SpiceOrder 33
PIN 240 -64 RIGHT 8
PINATTR PinName CLKout12
PINATTR SpiceOrder 34
PIN 240 704 RIGHT 8
PINATTR PinName CLKout34
PINATTR SpiceOrder 35
PIN 0 800 BOTTOM 8
PINATTR PinName GND
PINATTR SpiceOrder 36
