Version 4
SymbolType CELL
RECTANGLE Normal -144 -384 144 384
TEXT 0 0 Center 2 LT
WINDOW 0 0 -96 Center 2
WINDOW 3 0 110 Center 2
SYMATTR Value LTM8078
SYMATTR Prefix X
SYMATTR SpiceModel LTM8078.sub
SYMATTR Value2 LTM8078
SYMATTR Description Dual 1.4A, Single 2.8A, 42V, Synchronous Step-Down Silent Switcher μModule Regulator
PIN 144 336 RIGHT 8
PINATTR PinName GND
PINATTR SpiceOrder 2
PIN 144 -48 RIGHT 8
PINATTR PinName PG2
PINATTR SpiceOrder 3
PIN 144 -336 RIGHT 8
PINATTR PinName PG1
PINATTR SpiceOrder 4
PIN -144 240 LEFT 8
PINATTR PinName SYNC
PINATTR SpiceOrder 5
PIN -144 336 LEFT 8
PINATTR PinName CLKout
PINATTR SpiceOrder 6
PIN 144 -240 RIGHT 8
PINATTR PinName Vout1
PINATTR SpiceOrder 7
PIN 144 48 RIGHT 8
PINATTR PinName Vout2
PINATTR SpiceOrder 8
PIN -144 -240 LEFT 8
PINATTR PinName OM
PINATTR SpiceOrder 9
PIN 144 240 RIGHT 8
PINATTR PinName Bias
PINATTR SpiceOrder 10
PIN -144 -144 LEFT 8
PINATTR PinName OMC
PINATTR SpiceOrder 11
PIN 144 -144 RIGHT 8
PINATTR PinName FB1
PINATTR SpiceOrder 12
PIN -144 48 LEFT 8
PINATTR PinName SS1
PINATTR SpiceOrder 13
PIN -144 144 LEFT 8
PINATTR PinName SS2
PINATTR SpiceOrder 14
PIN 144 144 RIGHT 8
PINATTR PinName FB2
PINATTR SpiceOrder 15
PIN 64 -384 TOP 8
PINATTR PinName Vin2
PINATTR SpiceOrder 16
PIN -144 -48 LEFT 8
PINATTR PinName Rt
PINATTR SpiceOrder 17
PIN -144 -336 LEFT 8
PINATTR PinName RUN
PINATTR SpiceOrder 18
PIN -64 -384 TOP 8
PINATTR PinName Vin1
PINATTR SpiceOrder 1