Version 4
SymbolType CELL
RECTANGLE Normal 209 401 -224 -416
TEXT 0 0 Center 2 LT
WINDOW 3 0 192 Center 2
WINDOW 0 0 -224 Center 2
SYMATTR Value LTM8083
SYMATTR Prefix X
SYMATTR SpiceModel LTM8083.sub
SYMATTR Value2 LTM8083
SYMATTR Description 36V, 1.5A Buck-Boost μModule Regulator
PIN -224 -352 LEFT 8
PINATTR PinName Vin
PINATTR SpiceOrder 1
PIN -224 -256 LEFT 8
PINATTR PinName SVin
PINATTR SpiceOrder 3
PIN -224 32 LEFT 8
PINATTR PinName INTVcc
PINATTR SpiceOrder 4
PIN -224 -160 LEFT 8
PINATTR PinName EN/UVLO
PINATTR SpiceOrder 5
PIN -224 -64 LEFT 8
PINATTR PinName OVLO
PINATTR SpiceOrder 6
PIN -224 224 LEFT 8
PINATTR PinName TST2
PINATTR SpiceOrder 7
PIN -224 128 LEFT 8
PINATTR PinName CTRL
PINATTR SpiceOrder 10
PIN 208 -160 RIGHT 8
PINATTR PinName ISP
PINATTR SpiceOrder 11
PIN 208 -64 RIGHT 8
PINATTR PinName ISN
PINATTR SpiceOrder 12
PIN 208 32 RIGHT 8
PINATTR PinName ISMON
PINATTR SpiceOrder 13
PIN 208 224 RIGHT 8
PINATTR PinName SS
PINATTR SpiceOrder 15
PIN 208 -256 RIGHT 8
PINATTR PinName FB
PINATTR SpiceOrder 16
PIN 208 128 RIGHT 8
PINATTR PinName Vc
PINATTR SpiceOrder 17
PIN 208 320 RIGHT 8
PINATTR PinName RT
PINATTR SpiceOrder 18
PIN -224 320 LEFT 8
PINATTR PinName SYNC
PINATTR SpiceOrder 19
PIN 208 -352 RIGHT 8
PINATTR PinName Vout
PINATTR SpiceOrder 21
PIN 0 400 BOTTOM 8
PINATTR PinName GND
PINATTR SpiceOrder 29
