Version 4
SymbolType CELL
RECTANGLE Normal -128 -176 128 192
TEXT 0 0 Center 2 LT
WINDOW 0 0 -96 Center 2
WINDOW 3 0 96 Center 2
SYMATTR Value LTM8063
SYMATTR Prefix X
SYMATTR SpiceModel LTM8063.sub
SYMATTR Value2 LTM8063
SYMATTR Description 40Vin, 2A Silent Switcher µModule Regulator
PIN 128 -144 RIGHT 8
PINATTR PinName Vout
PINATTR SpiceOrder 2
PIN 128 144 RIGHT 8
PINATTR PinName Rt
PINATTR SpiceOrder 4
PIN -128 48 LEFT 8
PINATTR PinName Sync
PINATTR SpiceOrder 5
PIN 128 -48 RIGHT 8
PINATTR PinName FB
PINATTR SpiceOrder 6
PIN -128 144 LEFT 8
PINATTR PinName TR/SS
PINATTR SpiceOrder 7
PIN 128 48 RIGHT 8
PINATTR PinName PG
PINATTR SpiceOrder 8
PIN -128 -144 LEFT 8
PINATTR PinName Vin
PINATTR SpiceOrder 9
PIN -128 -48 LEFT 8
PINATTR PinName Run
PINATTR SpiceOrder 10
PIN 0 192 BOTTOM 8
PINATTR PinName GND
PINATTR SpiceOrder 11
