Version 4
SymbolType CELL
RECTANGLE Normal -144 -240 144 240
TEXT 0 0 Center 2 LT
WINDOW 0 0 -144 Center 2
WINDOW 3 0 144 Center 2
SYMATTR Value LTM8074
SYMATTR Prefix X
SYMATTR SpiceModel LTM8074.sub
SYMATTR Value2 LTM8074
SYMATTR Description 40Vin, 1.2A Silent Switcher uModule Regulator
PIN 144 -192 RIGHT 8
PINATTR PinName Vout
PINATTR SpiceOrder 2
PIN -144 192 LEFT 8
PINATTR PinName Rt
PINATTR SpiceOrder 4
PIN -144 0 LEFT 8
PINATTR PinName Sync
PINATTR SpiceOrder 5
PIN 144 64 RIGHT 8
PINATTR PinName FB
PINATTR SpiceOrder 6
PIN -144 96 LEFT 8
PINATTR PinName TR/SS
PINATTR SpiceOrder 7
PIN 144 -64 RIGHT 8
PINATTR PinName PG
PINATTR SpiceOrder 8
PIN -144 -192 LEFT 8
PINATTR PinName Vin
PINATTR SpiceOrder 9
PIN -144 -96 LEFT 8
PINATTR PinName EN/UV
PINATTR SpiceOrder 10
PIN 144 192 RIGHT 8
PINATTR PinName GND
PINATTR SpiceOrder 11
