Version 4
SymbolType CELL
RECTANGLE Normal -144 -208 144 208
TEXT 0 0 Center 2 LT
WINDOW 0 -2 -97 Center 2
WINDOW 3 -2 96 Center 2
SYMATTR Value LTM8002
SYMATTR Prefix X
SYMATTR SpiceModel LTM8002.sub
SYMATTR Value2 LTM8002
SYMATTR Description 40Vin, 2.5A Silent Switcher µModule Regulator
PIN 144 48 RIGHT 8
PINATTR PinName Bias
PINATTR SpiceOrder 1
PIN -144 -144 LEFT 8
PINATTR PinName Vin
PINATTR SpiceOrder 4
PIN 144 -144 RIGHT 8
PINATTR PinName Vout
PINATTR SpiceOrder 8
PIN 0 -208 TOP 8
PINATTR PinName Run
PINATTR SpiceOrder 14
PIN -144 144 LEFT 8
PINATTR PinName RT
PINATTR SpiceOrder 15
PIN 144 144 RIGHT 8
PINATTR PinName TR/SS
PINATTR SpiceOrder 16
PIN -144 -48 LEFT 8
PINATTR PinName Sync
PINATTR SpiceOrder 17
PIN 0 208 BOTTOM 8
PINATTR PinName GND
PINATTR SpiceOrder 18
PIN -144 48 LEFT 8
PINATTR PinName PG
PINATTR SpiceOrder 19
PIN 144 -48 RIGHT 8
PINATTR PinName FB
PINATTR SpiceOrder 20
