Version 4
SymbolType CELL
RECTANGLE Normal -144 -448 144 432
TEXT 0 1 Center 2 LT
WINDOW 0 0 -143 Center 2
WINDOW 3 0 145 Center 2
SYMATTR Value LTM8024
SYMATTR Prefix X
SYMATTR SpiceModel LTM8024.sub
SYMATTR Value2 LTM8024
SYMATTR Description Dual 40V, 3A Step-Down Silent Switcher µModule Regulator
PIN -144 384 LEFT 8
PINATTR PinName Rt
PINATTR SpiceOrder 1
PIN 0 432 BOTTOM 8
PINATTR PinName GND
PINATTR SpiceOrder 2
PIN -144 -192 LEFT 8
PINATTR PinName Vout1
PINATTR SpiceOrder 3
PIN -64 -448 TOP 8
PINATTR PinName Vin1
PINATTR SpiceOrder 4
PIN 144 -192 RIGHT 8
PINATTR PinName Vout2
PINATTR SpiceOrder 5
PIN -144 -96 LEFT 8
PINATTR PinName Aux1
PINATTR SpiceOrder 6
PIN 64 -448 TOP 8
PINATTR PinName Vin2
PINATTR SpiceOrder 7
PIN 144 -96 RIGHT 8
PINATTR PinName Aux2
PINATTR SpiceOrder 10
PIN -144 -384 LEFT 8
PINATTR PinName Run1
PINATTR SpiceOrder 11
PIN 144 -384 RIGHT 8
PINATTR PinName Run2
PINATTR SpiceOrder 12
PIN -144 -288 LEFT 8
PINATTR PinName PG1
PINATTR SpiceOrder 14
PIN 144 -288 RIGHT 8
PINATTR PinName PG2
PINATTR SpiceOrder 15
PIN -144 288 LEFT 8
PINATTR PinName SYNC
PINATTR SpiceOrder 16
PIN 144 288 RIGHT 8
PINATTR PinName CLKout
PINATTR SpiceOrder 17
PIN 144 384 RIGHT 8
PINATTR PinName Bias
PINATTR SpiceOrder 26
PIN -144 96 LEFT 8
PINATTR PinName Share1
PINATTR SpiceOrder 27
PIN -144 0 LEFT 8
PINATTR PinName FB1
PINATTR SpiceOrder 28
PIN -144 192 LEFT 8
PINATTR PinName TRSS1
PINATTR SpiceOrder 29
PIN 144 192 RIGHT 8
PINATTR PinName TRSS2
PINATTR SpiceOrder 30
PIN 144 0 RIGHT 8
PINATTR PinName FB2
PINATTR SpiceOrder 31
PIN 144 96 RIGHT 8
PINATTR PinName Share2
PINATTR SpiceOrder 32
