Version 4
SymbolType CELL
RECTANGLE Normal -208 -400 208 400
TEXT 0 0 Center 2 LT
WINDOW 0 0 -176 Center 2
WINDOW 3 0 176 Center 2
SYMATTR Value LTM8005
SYMATTR Prefix X
SYMATTR SpiceModel LTM8005.sub
SYMATTR Value2 LTM8005
SYMATTR Description 38Vin Boost µModule Regulator for LED Drive with 10A Switch
PIN 208 48 RIGHT 8
PINATTR PinName LED
PINATTR SpiceOrder 30
PIN 208 144 RIGHT 8
PINATTR PinName Aux
PINATTR SpiceOrder 33
PIN 208 240 RIGHT 8
PINATTR PinName FB
PINATTR SpiceOrder 7
PIN 208 -144 RIGHT 8
PINATTR PinName Vout
PINATTR SpiceOrder 1
PIN -160 400 BOTTOM 8
PINATTR PinName Ismon
PINATTR SpiceOrder 5
PIN -208 -48 LEFT 8
PINATTR PinName CTRL2
PINATTR SpiceOrder 6
PIN 208 -48 RIGHT 8
PINATTR PinName ISN
PINATTR SpiceOrder 2
PIN 0 400 BOTTOM 8
PINATTR PinName Vc
PINATTR SpiceOrder 8
PIN -208 -144 LEFT 8
PINATTR PinName CTRL1
PINATTR SpiceOrder 9
PIN -208 -240 LEFT 8
PINATTR PinName Vref
PINATTR SpiceOrder 10
PIN 160 400 BOTTOM 8
PINATTR PinName SS
PINATTR SpiceOrder 11
PIN 80 400 BOTTOM 8
PINATTR PinName RT
PINATTR SpiceOrder 12
PIN -80 400 BOTTOM 8
PINATTR PinName RAMP
PINATTR SpiceOrder 13
PIN -208 48 LEFT 8
PINATTR PinName PWM
PINATTR SpiceOrder 14
PIN -208 240 LEFT 8
PINATTR PinName _ShortLED
PINATTR SpiceOrder 15
PIN -208 336 LEFT 8
PINATTR PinName _OpenLED
PINATTR SpiceOrder 16
PIN 208 -240 RIGHT 8
PINATTR PinName DA
PINATTR SpiceOrder 32
PIN 208 -336 RIGHT 8
PINATTR PinName SW
PINATTR SpiceOrder 31
PIN 208 336 RIGHT 8
PINATTR PinName GND
PINATTR SpiceOrder 4
PIN -48 -400 TOP 8
PINATTR PinName Vin
PINATTR SpiceOrder 23
PIN -144 -400 TOP 8
PINATTR PinName EN/UVLO
PINATTR SpiceOrder 24
PIN -208 -336 LEFT 8
PINATTR PinName OVLO
PINATTR SpiceOrder 25
PIN 144 -400 TOP 8
PINATTR PinName IVINN
PINATTR SpiceOrder 26
PIN 48 -400 TOP 8
PINATTR PinName IVINP
PINATTR SpiceOrder 27
PIN -208 144 LEFT 8
PINATTR PinName IVINCOMP
PINATTR SpiceOrder 28
