Version 4
SymbolType CELL
RECTANGLE Normal -160 -352 160 352
TEXT 0 0 Center 2 LT
WINDOW 0 3 -193 Center 2
WINDOW 3 -3 192 Center 2
SYMATTR Value LTM8008
SYMATTR Prefix X
SYMATTR SpiceModel LTM8008.sub
SYMATTR Value2 LTM8008
SYMATTR Description 72Vin, 6 Output DC/DC µModule Regulator
PIN -160 96 LEFT 8
PINATTR PinName Sync
PINATTR SpiceOrder 6
PIN -160 288 LEFT 8
PINATTR PinName Gnd
PINATTR SpiceOrder 11
PIN -160 0 LEFT 8
PINATTR PinName SS
PINATTR SpiceOrder 3
PIN -160 -96 LEFT 8
PINATTR PinName Rt
PINATTR SpiceOrder 4
PIN 160 -288 RIGHT 8
PINATTR PinName SPV
PINATTR SpiceOrder 2
PIN 0 -352 TOP 8
PINATTR PinName SW
PINATTR SpiceOrder 7
PIN 0 352 BOTTOM 8
PINATTR PinName INTVcc
PINATTR SpiceOrder 8
PIN -160 -192 LEFT 8
PINATTR PinName Run
PINATTR SpiceOrder 9
PIN -160 -288 LEFT 8
PINATTR PinName Vin
PINATTR SpiceOrder 10
PIN -160 192 LEFT 8
PINATTR PinName Vc
PINATTR SpiceOrder 1
PIN 160 -192 RIGHT 8
PINATTR PinName Vout1
PINATTR SpiceOrder 17
PIN 160 -96 RIGHT 8
PINATTR PinName Vout2
PINATTR SpiceOrder 13
PIN 160 0 RIGHT 8
PINATTR PinName Vout3
PINATTR SpiceOrder 14
PIN 160 96 RIGHT 8
PINATTR PinName Vout4
PINATTR SpiceOrder 15
PIN 160 192 RIGHT 8
PINATTR PinName Vout5
PINATTR SpiceOrder 16
PIN 160 288 RIGHT 8
PINATTR PinName Vout6
PINATTR SpiceOrder 18
