Version 4
SymbolType CELL
LINE Normal 56 24 52 40
LINE Normal 60 24 56 40
LINE Normal 56 24 64 24
LINE Normal 56 40 48 40
LINE Normal 96 32 128 32
LINE Normal 32 0 96 32
LINE Normal 32 64 96 32
LINE Normal 32 0 32 64
LINE Normal 0 -96 0 16
LINE Normal -6 48 32 48
LINE Normal 32 16 0 16
RECTANGLE Normal -128 -96 128 96
RECTANGLE Normal -6 32 -54 64
TEXT -52 48 Left 2 REF
TEXT 0 -36 Center 2 ADI
WINDOW 0 56 -112 Left 2
WINDOW 3 40 208 Left 2
SYMATTR Value LTC1998
SYMATTR Prefix X
SYMATTR SpiceModel LTC1998.sub
SYMATTR Value2 LTC1998
SYMATTR Description 2.5µA, 1% Accurate SOT-23 Comparator and Voltage Reference for Battery Monitoring
PIN 0 -96 TOP 0
PINATTR PinName BATT
PINATTR SpiceOrder 1
PIN 128 -32 RIGHT 0
PINATTR PinName VL
PINATTR SpiceOrder 5
PIN 128 32 NONE 0
PINATTR PinName BATTLO
PINATTR SpiceOrder 6
PIN 0 96 BOTTOM 0
PINATTR PinName GND
PINATTR SpiceOrder 2
PIN -128 32 LEFT 0
PINATTR PinName VTHA
PINATTR SpiceOrder 3
PIN -128 -32 LEFT 0
PINATTR PinName VHA
PINATTR SpiceOrder 4
