Version 4
SymbolType CELL
RECTANGLE Normal 192 160 -192 -160
TEXT 0 0 Center 2 LT
WINDOW 0 0 -48 Center 2
WINDOW 3 0 53 Center 2
SYMATTR Value LT4294
SYMATTR Prefix X
SYMATTR SpiceModel LT4294.sub
SYMATTR Value2 LT4294
SYMATTR Description IEEE 802.3bt PD Interface Controller
PIN -192 -96 LEFT 8
PINATTR PinName AUX
PINATTR SpiceOrder 2
PIN -192 -32 LEFT 8
PINATTR PinName Rclass
PINATTR SpiceOrder 3
PIN -192 32 LEFT 8
PINATTR PinName Rclass++
PINATTR SpiceOrder 4
PIN -192 96 LEFT 8
PINATTR PinName GND
PINATTR SpiceOrder 5
PIN 192 128 RIGHT 8
PINATTR PinName _T2P
PINATTR SpiceOrder 6
PIN 192 64 RIGHT 8
PINATTR PinName pwrGD
PINATTR SpiceOrder 7
PIN 192 0 RIGHT 8
PINATTR PinName HSsrc
PINATTR SpiceOrder 8
PIN 192 -64 RIGHT 8
PINATTR PinName HSgate
PINATTR SpiceOrder 9
PIN 192 -128 RIGHT 8
PINATTR PinName Vport
PINATTR SpiceOrder 10
