Version 4
SymbolType CELL
RECTANGLE Normal 192 192 -192 -192
TEXT 0 0 Center 2 LT
WINDOW 0 0 -64 Center 2
WINDOW 3 0 64 Center 2
SYMATTR Value LT4321
SYMATTR Prefix X
SYMATTR Description POE Ideal Diode Bridge Controller
SYMATTR SpiceModel LT4321.sub
SYMATTR Value2 LT4321
PIN 144 -192 TOP 8
PINATTR PinName TG36
PINATTR SpiceOrder 1
PIN -192 -32 LEFT 8
PINATTR PinName In36
PINATTR SpiceOrder 2
PIN -192 32 LEFT 8
PINATTR PinName In45
PINATTR SpiceOrder 3
PIN -48 192 BOTTOM 4
PINATTR PinName TG45
PINATTR SpiceOrder 4
PIN 48 192 BOTTOM 4
PINATTR PinName TG78
PINATTR SpiceOrder 5
PIN -192 96 LEFT 8
PINATTR PinName In78
PINATTR SpiceOrder 6
PIN 144 192 BOTTOM 4
PINATTR PinName BG78
PINATTR SpiceOrder 7
PIN -144 192 BOTTOM 8
PINATTR PinName BG45
PINATTR SpiceOrder 8
PIN 192 96 RIGHT 8
PINATTR PinName OutN
PINATTR SpiceOrder 9
PIN 192 -32 RIGHT 8
PINATTR PinName _EN
PINATTR SpiceOrder 10
PIN 192 32 RIGHT 8
PINATTR PinName EN
PINATTR SpiceOrder 11
PIN 192 -96 RIGHT 8
PINATTR PinName OutP
PINATTR SpiceOrder 12
PIN 48 -192 TOP 8
PINATTR PinName BG36
PINATTR SpiceOrder 13
PIN -48 -192 TOP 8
PINATTR PinName BG12
PINATTR SpiceOrder 14
PIN -192 -96 LEFT 8
PINATTR PinName In12
PINATTR SpiceOrder 15
PIN -144 -192 TOP 8
PINATTR PinName TG12
PINATTR SpiceOrder 16
