Version 4
SymbolType CELL
LINE Normal -32 32 12 56
LINE Normal -32 96 12 72
LINE Normal -32 32 -32 96
LINE Normal -28 48 -20 48
LINE Normal -28 80 -20 80
LINE Normal -24 84 -24 76
CIRCLE Normal 32 76 8 52
CIRCLE Normal 48 76 24 52
WINDOW 0 0 32 Left 2
WINDOW 3 0 104 Left 2
SYMATTR Prefix A
SYMATTR SpiceModel OTA
SYMATTR Description Behavioral Operational Transconductance Amplifier
PIN -32 48 NONE 0
PINATTR PinName invin
PINATTR SpiceOrder 1
PIN -32 80 NONE 0
PINATTR PinName noninvin
PINATTR SpiceOrder 2
PIN 48 64 NONE 0
PINATTR PinName out
PINATTR SpiceOrder 7
PIN -32 96 NONE 0
PINATTR PinName com
PINATTR SpiceOrder 8
