Version 4
SymbolType CELL
RECTANGLE Normal -159 -143 160 144
TEXT 0 0 Center 2 LT
WINDOW 0 0 -48 Center 2
WINDOW 3 4 42 Center 2
SYMATTR Value AD5535Bopamp
SYMATTR Prefix X
SYMATTR Value2 AD5535Bopamp
SYMATTR Description 32-Channel, 14-Bit DAC (one channel, output stage modelled)
SYMATTR ModelFile AD5535Bopamp.sub
PIN -160 0 LEFT 8
PINATTR PinName Vdac
PINATTR SpiceOrder 2
PIN 0 -144 TOP 8
PINATTR PinName Vpp
PINATTR SpiceOrder 1
PIN 160 0 RIGHT 8
PINATTR PinName Vout
PINATTR SpiceOrder 3
PIN 0 144 BOTTOM 8
PINATTR PinName GND
PINATTR SpiceOrder 4
