Version 4
SymbolType CELL
LINE Normal -160 144 -160 -144
LINE Normal 96 144 -160 144
LINE Normal 209 -1 96 144
LINE Normal 96 -144 209 -1
LINE Normal -160 -144 96 -144
TEXT 0 0 Center 2 ADI
WINDOW 0 0 -48 Center 2
WINDOW 3 4 42 Center 2
WINDOW 39 0 86 Center 1
SYMATTR Value AD5770R
SYMATTR SpiceLine Range=1
SYMATTR Prefix X
SYMATTR Value2 AD5770R
SYMATTR Description 6-Channel, 14Bit Current Output DACs (one channel, output stage modeled)
SYMATTR ModelFile AD5770R.sub
PIN -160 0 LEFT 8
PINATTR PinName Vdac
PINATTR SpiceOrder 1
PIN 208 0 RIGHT 8
PINATTR PinName Iout
PINATTR SpiceOrder 2
PIN -32 -144 TOP 8
PINATTR PinName PVdd
PINATTR SpiceOrder 3
PIN 32 144 BOTTOM 8
PINATTR PinName PVee
PINATTR SpiceOrder 4
PIN -96 144 BOTTOM 8
PINATTR PinName GND
PINATTR SpiceOrder 5
