Version 4
SymbolType CELL
RECTANGLE Normal -208 -224 208 224
TEXT 0 0 Center 2 LT
WINDOW 0 0 -48 Center 2
WINDOW 3 0 53 Center 2
SYMATTR Value AD4002
SYMATTR Prefix X
SYMATTR SpiceModel AD4002.sub
SYMATTR Value2 AD4002
SYMATTR Description 18-Bit, 2 MSPS/1 MSPS/500 kSPS, Precision, Pseudo Differential SAR ADCs
PIN 208 0 RIGHT 8
PINATTR PinName REF
PINATTR SpiceOrder 1
PIN 0 -224 TOP 8
PINATTR PinName Vdd
PINATTR SpiceOrder 2
PIN -208 -144 LEFT 8
PINATTR PinName IN+
PINATTR SpiceOrder 3
PIN 208 112 RIGHT 8
PINATTR PinName IN_SlewAlarm
PINATTR SpiceOrder 4
PIN 0 224 BOTTOM 8
PINATTR PinName GND
PINATTR SpiceOrder 5
PIN -208 48 LEFT 8
PINATTR PinName CNV
PINATTR SpiceOrder 6
PIN -208 -48 LEFT 8
PINATTR PinName EN_PreChrg
PINATTR SpiceOrder 7
PIN -208 144 LEFT 8
PINATTR PinName Reset
PINATTR SpiceOrder 8
PIN 208 -112 RIGHT 8
PINATTR PinName Vout
PINATTR SpiceOrder 9
