Version 4
SymbolType CELL
RECTANGLE Normal -176 -160 176 176
TEXT 0 0 Center 2 LT
WINDOW 0 0 -48 Center 2
WINDOW 3 0 53 Center 2
SYMATTR Value LTC2311-12
SYMATTR Prefix X
SYMATTR SpiceModel LTC2311-12.sub
SYMATTR Value2 LTC2311-12
SYMATTR Description 12-Bit + Sign, 5Msps Diff Input ADC with Wide Input CM Range
PIN -64 -160 TOP 8
PINATTR PinName Vdd
PINATTR SpiceOrder 1
PIN -176 -112 LEFT 8
PINATTR PinName Ain+
PINATTR SpiceOrder 2
PIN -176 -64 LEFT 8
PINATTR PinName Ain-
PINATTR SpiceOrder 3
PIN -176 0 LEFT 8
PINATTR PinName REFin
PINATTR SpiceOrder 4
PIN 176 -80 RIGHT 8
PINATTR PinName REFout
PINATTR SpiceOrder 5
PIN -176 64 LEFT 8
PINATTR PinName _CNV
PINATTR SpiceOrder 6
PIN -176 128 LEFT 8
PINATTR PinName SCLK
PINATTR SpiceOrder 7
PIN 176 0 RIGHT 8
PINATTR PinName Vout
PINATTR SpiceOrder 8
PIN 64 -160 TOP 8
PINATTR PinName OVdd
PINATTR SpiceOrder 10
PIN 0 176 BOTTOM 8
PINATTR PinName GND
PINATTR SpiceOrder 11
