Version 4
SymbolType CELL
RECTANGLE Normal 160 208 -160 -176
TEXT 0 0 Center 2 ADI
WINDOW 3 0 96 Center 2
WINDOW 0 0 -96 Center 2
SYMATTR Value AD8310
SYMATTR Prefix X
SYMATTR Description Fast, Voltage-Out, DC to 440MHz, 95dB Logartihmic Amplifier
SYMATTR SpiceModel AD8310.lib
SYMATTR Value2 AD8310
PIN -160 48 LEFT 8
PINATTR PinName INLO
PINATTR SpiceOrder 1
PIN -160 144 LEFT 8
PINATTR PinName COMM
PINATTR SpiceOrder 2
PIN 160 144 RIGHT 8
PINATTR PinName OFLT
PINATTR SpiceOrder 3
PIN 160 48 RIGHT 8
PINATTR PinName VOUT
PINATTR SpiceOrder 4
PIN -160 -144 LEFT 8
PINATTR PinName VPOS
PINATTR SpiceOrder 5
PIN 160 -48 RIGHT 8
PINATTR PinName BFIN
PINATTR SpiceOrder 6
PIN 160 -144 RIGHT 8
PINATTR PinName ENBL
PINATTR SpiceOrder 7
PIN -160 -48 LEFT 8
PINATTR PinName INHI
PINATTR SpiceOrder 8
