Version 4
SymbolType CELL
RECTANGLE Normal -256 -304 240 368
TEXT 0 0 Center 2 LT
WINDOW 0 0 -72 Center 2
WINDOW 3 0 89 Center 2
SYMATTR Value LTC6561
SYMATTR Value2 LTC6561
SYMATTR Prefix X
SYMATTR SpiceModel LTC7.lib
SYMATTR Description Four-Channel Multiplexed Transimpedance Amplifier with Output Multiplexing
PIN 144 -304 TOP 8
PINATTR PinName Vcco
PINATTR SpiceOrder 1
PIN 48 368 BOTTOM 8
PINATTR PinName chsel0
PINATTR SpiceOrder 2
PIN -144 -304 TOP 8
PINATTR PinName Vcc
PINATTR SpiceOrder 3
PIN -256 -176 LEFT 8
PINATTR PinName Vref1
PINATTR SpiceOrder 4
PIN -256 -16 LEFT 8
PINATTR PinName Vref2
PINATTR SpiceOrder 5
PIN -256 144 LEFT 8
PINATTR PinName Vref3
PINATTR SpiceOrder 6
PIN -256 304 LEFT 8
PINATTR PinName Vref4
PINATTR SpiceOrder 7
PIN -144 368 BOTTOM 8
PINATTR PinName Gnd
PINATTR SpiceOrder 8
PIN -256 -256 LEFT 8
PINATTR PinName In1
PINATTR SpiceOrder 9
PIN -256 -96 LEFT 8
PINATTR PinName In2
PINATTR SpiceOrder 10
PIN -256 64 LEFT 8
PINATTR PinName In3
PINATTR SpiceOrder 11
PIN -256 224 LEFT 8
PINATTR PinName In4
PINATTR SpiceOrder 12
PIN 144 368 BOTTOM 8
PINATTR PinName O_Mux
PINATTR SpiceOrder 13
PIN -48 368 BOTTOM 8
PINATTR PinName chsel1
PINATTR SpiceOrder 14
PIN 240 -96 RIGHT 8
PINATTR PinName Out
PINATTR SpiceOrder 15
PIN 240 144 RIGHT 8
PINATTR PinName OutTerm
PINATTR SpiceOrder 16
