Version 4
SymbolType CELL
RECTANGLE Normal -176 -160 176 160
TEXT 0 0 Center 2 LT
WINDOW 0 0 -96 Center 2
WINDOW 3 0 95 Center 2
SYMATTR Value LTC6560
SYMATTR Value2 LTC6560
SYMATTR Prefix X
SYMATTR SpiceModel LTC3.lib
SYMATTR Description Single Channel Transimpedance Amplifier with Output Multiplexing
PIN 96 -160 TOP 8
PINATTR PinName Vcco
PINATTR SpiceOrder 1
PIN -176 -64 LEFT 8
PINATTR PinName In
PINATTR SpiceOrder 5
PIN -176 64 LEFT 8
PINATTR PinName Vref
PINATTR SpiceOrder 6
PIN -64 -160 TOP 8
PINATTR PinName Vcci
PINATTR SpiceOrder 11
PIN 96 160 BOTTOM 8
PINATTR PinName O_Mux
PINATTR SpiceOrder 12
PIN 176 64 RIGHT 8
PINATTR PinName OutTerm
PINATTR SpiceOrder 14
PIN 176 -64 RIGHT 8
PINATTR PinName Out
PINATTR SpiceOrder 15
PIN -64 160 BOTTOM 8
PINATTR PinName Gnd
PINATTR SpiceOrder 17
